
---------- Begin Simulation Statistics ----------
simSeconds                                   4.123266                       # Number of seconds simulated (Second)
simTicks                                 4123266193080                       # Number of ticks simulated (Tick)
finalTick                                4123266193080                       # Number of ticks from beginning of simulation (restored from checkpoints and never reset) (Tick)
simFreq                                  1000000000000                       # The number of ticks per simulated second ((Tick/Second))
hostSeconds                                   3522.90                       # Real time elapsed on the host (Second)
hostTickRate                               1170418473                       # The number of ticks simulated per host second (ticks/s) ((Tick/Second))
hostMemory                                    5439492                       # Number of bytes of host memory used (Byte)
simInsts                                   3050833648                       # Number of instructions simulated (Count)
simOps                                     4440436442                       # Number of ops (including micro ops) simulated (Count)
hostInstRate                                   866001                       # Simulator instruction rate (inst/s) ((Count/Second))
hostOpRate                                    1260449                       # Simulator op (including micro ops) rate (op/s) ((Count/Second))
system.apicbridge.power_state.pwrStateResidencyTicks::UNDEFINED 4123266193080                       # Cumulative time (in ticks) in various power states (Tick)
system.bridge.power_state.pwrStateResidencyTicks::UNDEFINED 4123266193080                       # Cumulative time (in ticks) in various power states (Tick)
system.clk_domain.clock                          1000                       # Clock period in ticks (Tick)
system.cpu.numCycles                      12382180760                       # Number of cpu cycles simulated (Cycle)
system.cpu.numUsrCycles                             0                       # Number of user mode cpu cycles simulated (Cycle)
system.cpu.numWorkItemsStarted                      0                       # Number of work items this cpu started (Count)
system.cpu.numWorkItemsCompleted                    0                       # Number of work items this cpu completed (Count)
system.cpu.dcache.demandHits::cpu.data     1865278514                       # number of demand (read+write) hits (Count)
system.cpu.dcache.demandHits::total        1865278514                       # number of demand (read+write) hits (Count)
system.cpu.dcache.overallHits::cpu.data    1865278514                       # number of overall hits (Count)
system.cpu.dcache.overallHits::total       1865278514                       # number of overall hits (Count)
system.cpu.dcache.demandMisses::cpu.data     47597833                       # number of demand (read+write) misses (Count)
system.cpu.dcache.demandMisses::total        47597833                       # number of demand (read+write) misses (Count)
system.cpu.dcache.overallMisses::cpu.data     47597833                       # number of overall misses (Count)
system.cpu.dcache.overallMisses::total       47597833                       # number of overall misses (Count)
system.cpu.dcache.demandMissLatency::cpu.data 285973113627                       # number of demand (read+write) miss ticks (Tick)
system.cpu.dcache.demandMissLatency::total 285973113627                       # number of demand (read+write) miss ticks (Tick)
system.cpu.dcache.overallMissLatency::cpu.data 285973113627                       # number of overall miss ticks (Tick)
system.cpu.dcache.overallMissLatency::total 285973113627                       # number of overall miss ticks (Tick)
system.cpu.dcache.demandAccesses::cpu.data   1912876347                       # number of demand (read+write) accesses (Count)
system.cpu.dcache.demandAccesses::total    1912876347                       # number of demand (read+write) accesses (Count)
system.cpu.dcache.overallAccesses::cpu.data   1912876347                       # number of overall (read+write) accesses (Count)
system.cpu.dcache.overallAccesses::total   1912876347                       # number of overall (read+write) accesses (Count)
system.cpu.dcache.demandMissRate::cpu.data     0.024883                       # miss rate for demand accesses (Ratio)
system.cpu.dcache.demandMissRate::total      0.024883                       # miss rate for demand accesses (Ratio)
system.cpu.dcache.overallMissRate::cpu.data     0.024883                       # miss rate for overall accesses (Ratio)
system.cpu.dcache.overallMissRate::total     0.024883                       # miss rate for overall accesses (Ratio)
system.cpu.dcache.demandAvgMissLatency::cpu.data  6008.112042                       # average overall miss latency ((Cycle/Count))
system.cpu.dcache.demandAvgMissLatency::total  6008.112042                       # average overall miss latency ((Cycle/Count))
system.cpu.dcache.overallAvgMissLatency::cpu.data  6008.112042                       # average overall miss latency ((Cycle/Count))
system.cpu.dcache.overallAvgMissLatency::total  6008.112042                       # average overall miss latency ((Cycle/Count))
system.cpu.dcache.blockedCycles::no_mshrs            0                       # number of cycles access was blocked (Cycle)
system.cpu.dcache.blockedCycles::no_targets            0                       # number of cycles access was blocked (Cycle)
system.cpu.dcache.blockedCauses::no_mshrs            0                       # number of times access was blocked (Count)
system.cpu.dcache.blockedCauses::no_targets            0                       # number of times access was blocked (Count)
system.cpu.dcache.avgBlocked::no_mshrs            nan                       # average number of cycles each access was blocked ((Cycle/Count))
system.cpu.dcache.avgBlocked::no_targets          nan                       # average number of cycles each access was blocked ((Cycle/Count))
system.cpu.dcache.writebacks::writebacks       560594                       # number of writebacks (Count)
system.cpu.dcache.writebacks::total            560594                       # number of writebacks (Count)
system.cpu.dcache.demandMshrMisses::cpu.data     47597833                       # number of demand (read+write) MSHR misses (Count)
system.cpu.dcache.demandMshrMisses::total     47597833                       # number of demand (read+write) MSHR misses (Count)
system.cpu.dcache.overallMshrMisses::cpu.data     47597833                       # number of overall MSHR misses (Count)
system.cpu.dcache.overallMshrMisses::total     47597833                       # number of overall MSHR misses (Count)
system.cpu.dcache.overallMshrUncacheable::cpu.data        13517                       # number of overall MSHR uncacheable misses (Count)
system.cpu.dcache.overallMshrUncacheable::total        13517                       # number of overall MSHR uncacheable misses (Count)
system.cpu.dcache.demandMshrMissLatency::cpu.data 254272956849                       # number of demand (read+write) MSHR miss ticks (Tick)
system.cpu.dcache.demandMshrMissLatency::total 254272956849                       # number of demand (read+write) MSHR miss ticks (Tick)
system.cpu.dcache.overallMshrMissLatency::cpu.data 254272956849                       # number of overall MSHR miss ticks (Tick)
system.cpu.dcache.overallMshrMissLatency::total 254272956849                       # number of overall MSHR miss ticks (Tick)
system.cpu.dcache.overallMshrUncacheableLatency::cpu.data    340709616                       # number of overall MSHR uncacheable ticks (Tick)
system.cpu.dcache.overallMshrUncacheableLatency::total    340709616                       # number of overall MSHR uncacheable ticks (Tick)
system.cpu.dcache.demandMshrMissRate::cpu.data     0.024883                       # mshr miss ratio for demand accesses (Ratio)
system.cpu.dcache.demandMshrMissRate::total     0.024883                       # mshr miss ratio for demand accesses (Ratio)
system.cpu.dcache.overallMshrMissRate::cpu.data     0.024883                       # mshr miss ratio for overall accesses (Ratio)
system.cpu.dcache.overallMshrMissRate::total     0.024883                       # mshr miss ratio for overall accesses (Ratio)
system.cpu.dcache.demandAvgMshrMissLatency::cpu.data  5342.112042                       # average overall mshr miss latency ((Cycle/Count))
system.cpu.dcache.demandAvgMshrMissLatency::total  5342.112042                       # average overall mshr miss latency ((Cycle/Count))
system.cpu.dcache.overallAvgMshrMissLatency::cpu.data  5342.112042                       # average overall mshr miss latency ((Cycle/Count))
system.cpu.dcache.overallAvgMshrMissLatency::total  5342.112042                       # average overall mshr miss latency ((Cycle/Count))
system.cpu.dcache.overallAvgMshrUncacheableLatency::cpu.data 25206.008434                       # average overall mshr uncacheable latency ((Cycle/Count))
system.cpu.dcache.overallAvgMshrUncacheableLatency::total 25206.008434                       # average overall mshr uncacheable latency ((Cycle/Count))
system.cpu.dcache.replacements               47097844                       # number of replacements (Count)
system.cpu.dcache.CleanInvalidReq.missLatency::cpu.data  11189077722                       # number of CleanInvalidReq miss ticks (Tick)
system.cpu.dcache.CleanInvalidReq.missLatency::total  11189077722                       # number of CleanInvalidReq miss ticks (Tick)
system.cpu.dcache.CleanInvalidReq.avgMissLatency::cpu.data          inf                       # average CleanInvalidReq miss latency ((Tick/Count))
system.cpu.dcache.CleanInvalidReq.avgMissLatency::total          inf                       # average CleanInvalidReq miss latency ((Tick/Count))
system.cpu.dcache.CleanInvalidReq.mshrMisses::cpu.data       574355                       # number of CleanInvalidReq MSHR misses (Count)
system.cpu.dcache.CleanInvalidReq.mshrMisses::total       574355                       # number of CleanInvalidReq MSHR misses (Count)
system.cpu.dcache.CleanInvalidReq.mshrMissLatency::cpu.data  14191201260                       # number of CleanInvalidReq MSHR miss ticks (Tick)
system.cpu.dcache.CleanInvalidReq.mshrMissLatency::total  14191201260                       # number of CleanInvalidReq MSHR miss ticks (Tick)
system.cpu.dcache.CleanInvalidReq.mshrMissRate::cpu.data          inf                       # mshr miss rate for CleanInvalidReq accesses (Ratio)
system.cpu.dcache.CleanInvalidReq.mshrMissRate::total          inf                       # mshr miss rate for CleanInvalidReq accesses (Ratio)
system.cpu.dcache.CleanInvalidReq.avgMshrMissLatency::cpu.data 24708.066022                       # average CleanInvalidReq mshr miss latency ((Tick/Count))
system.cpu.dcache.CleanInvalidReq.avgMshrMissLatency::total 24708.066022                       # average CleanInvalidReq mshr miss latency ((Tick/Count))
system.cpu.dcache.ReadReq.hits::cpu.data   1305586804                       # number of ReadReq hits (Count)
system.cpu.dcache.ReadReq.hits::total      1305586804                       # number of ReadReq hits (Count)
system.cpu.dcache.ReadReq.misses::cpu.data     47273444                       # number of ReadReq misses (Count)
system.cpu.dcache.ReadReq.misses::total      47273444                       # number of ReadReq misses (Count)
system.cpu.dcache.ReadReq.missLatency::cpu.data 260389877472                       # number of ReadReq miss ticks (Tick)
system.cpu.dcache.ReadReq.missLatency::total 260389877472                       # number of ReadReq miss ticks (Tick)
system.cpu.dcache.ReadReq.accesses::cpu.data   1352860248                       # number of ReadReq accesses(hits+misses) (Count)
system.cpu.dcache.ReadReq.accesses::total   1352860248                       # number of ReadReq accesses(hits+misses) (Count)
system.cpu.dcache.ReadReq.missRate::cpu.data     0.034943                       # miss rate for ReadReq accesses (Ratio)
system.cpu.dcache.ReadReq.missRate::total     0.034943                       # miss rate for ReadReq accesses (Ratio)
system.cpu.dcache.ReadReq.avgMissLatency::cpu.data  5508.163896                       # average ReadReq miss latency ((Tick/Count))
system.cpu.dcache.ReadReq.avgMissLatency::total  5508.163896                       # average ReadReq miss latency ((Tick/Count))
system.cpu.dcache.ReadReq.mshrMisses::cpu.data     47273444                       # number of ReadReq MSHR misses (Count)
system.cpu.dcache.ReadReq.mshrMisses::total     47273444                       # number of ReadReq MSHR misses (Count)
system.cpu.dcache.ReadReq.mshrUncacheable::cpu.data         1476                       # number of ReadReq MSHR uncacheable (Count)
system.cpu.dcache.ReadReq.mshrUncacheable::total         1476                       # number of ReadReq MSHR uncacheable (Count)
system.cpu.dcache.ReadReq.mshrMissLatency::cpu.data 228905763768                       # number of ReadReq MSHR miss ticks (Tick)
system.cpu.dcache.ReadReq.mshrMissLatency::total 228905763768                       # number of ReadReq MSHR miss ticks (Tick)
system.cpu.dcache.ReadReq.mshrUncacheableLatency::cpu.data    340709616                       # number of ReadReq MSHR uncacheable ticks (Tick)
system.cpu.dcache.ReadReq.mshrUncacheableLatency::total    340709616                       # number of ReadReq MSHR uncacheable ticks (Tick)
system.cpu.dcache.ReadReq.mshrMissRate::cpu.data     0.034943                       # mshr miss rate for ReadReq accesses (Ratio)
system.cpu.dcache.ReadReq.mshrMissRate::total     0.034943                       # mshr miss rate for ReadReq accesses (Ratio)
system.cpu.dcache.ReadReq.avgMshrMissLatency::cpu.data  4842.163896                       # average ReadReq mshr miss latency ((Tick/Count))
system.cpu.dcache.ReadReq.avgMshrMissLatency::total  4842.163896                       # average ReadReq mshr miss latency ((Tick/Count))
system.cpu.dcache.ReadReq.avgMshrUncacheableLatency::cpu.data 230833.073171                       # average ReadReq mshr uncacheable latency ((Tick/Count))
system.cpu.dcache.ReadReq.avgMshrUncacheableLatency::total 230833.073171                       # average ReadReq mshr uncacheable latency ((Tick/Count))
system.cpu.dcache.WriteReq.hits::cpu.data    559691710                       # number of WriteReq hits (Count)
system.cpu.dcache.WriteReq.hits::total      559691710                       # number of WriteReq hits (Count)
system.cpu.dcache.WriteReq.misses::cpu.data       324389                       # number of WriteReq misses (Count)
system.cpu.dcache.WriteReq.misses::total       324389                       # number of WriteReq misses (Count)
system.cpu.dcache.WriteReq.missLatency::cpu.data  25583236155                       # number of WriteReq miss ticks (Tick)
system.cpu.dcache.WriteReq.missLatency::total  25583236155                       # number of WriteReq miss ticks (Tick)
system.cpu.dcache.WriteReq.accesses::cpu.data    560016099                       # number of WriteReq accesses(hits+misses) (Count)
system.cpu.dcache.WriteReq.accesses::total    560016099                       # number of WriteReq accesses(hits+misses) (Count)
system.cpu.dcache.WriteReq.missRate::cpu.data     0.000579                       # miss rate for WriteReq accesses (Ratio)
system.cpu.dcache.WriteReq.missRate::total     0.000579                       # miss rate for WriteReq accesses (Ratio)
system.cpu.dcache.WriteReq.avgMissLatency::cpu.data 78865.917633                       # average WriteReq miss latency ((Tick/Count))
system.cpu.dcache.WriteReq.avgMissLatency::total 78865.917633                       # average WriteReq miss latency ((Tick/Count))
system.cpu.dcache.WriteReq.mshrMisses::cpu.data       324389                       # number of WriteReq MSHR misses (Count)
system.cpu.dcache.WriteReq.mshrMisses::total       324389                       # number of WriteReq MSHR misses (Count)
system.cpu.dcache.WriteReq.mshrUncacheable::cpu.data        12041                       # number of WriteReq MSHR uncacheable (Count)
system.cpu.dcache.WriteReq.mshrUncacheable::total        12041                       # number of WriteReq MSHR uncacheable (Count)
system.cpu.dcache.WriteReq.mshrMissLatency::cpu.data  25367193081                       # number of WriteReq MSHR miss ticks (Tick)
system.cpu.dcache.WriteReq.mshrMissLatency::total  25367193081                       # number of WriteReq MSHR miss ticks (Tick)
system.cpu.dcache.WriteReq.mshrMissRate::cpu.data     0.000579                       # mshr miss rate for WriteReq accesses (Ratio)
system.cpu.dcache.WriteReq.mshrMissRate::total     0.000579                       # mshr miss rate for WriteReq accesses (Ratio)
system.cpu.dcache.WriteReq.avgMshrMissLatency::cpu.data 78199.917633                       # average WriteReq mshr miss latency ((Tick/Count))
system.cpu.dcache.WriteReq.avgMshrMissLatency::total 78199.917633                       # average WriteReq mshr miss latency ((Tick/Count))
system.cpu.dcache.power_state.pwrStateResidencyTicks::UNDEFINED 4123266193080                       # Cumulative time (in ticks) in various power states (Tick)
system.cpu.dcache.tags.tagsInUse           511.077948                       # Average ticks per tags in use ((Tick/Count))
system.cpu.dcache.tags.totalRefs           1913299363                       # Total number of references to valid blocks. (Count)
system.cpu.dcache.tags.sampledRefs           47595057                       # Sample count of references to valid blocks. (Count)
system.cpu.dcache.tags.avgRefs              40.199539                       # Average number of references to valid blocks. ((Count/Count))
system.cpu.dcache.tags.warmupTick              449883                       # The tick when the warmup percentage was hit. (Tick)
system.cpu.dcache.tags.occupancies::cpu.data   511.077948                       # Average occupied blocks per tick, per requestor ((Count/Tick))
system.cpu.dcache.tags.avgOccs::cpu.data     0.998199                       # Average percentage of cache occupancy ((Ratio/Tick))
system.cpu.dcache.tags.avgOccs::total        0.998199                       # Average percentage of cache occupancy ((Ratio/Tick))
system.cpu.dcache.tags.occupanciesTaskId::1024          512                       # Occupied blocks per task id (Count)
system.cpu.dcache.tags.ageTaskId_1024::1            8                       # Occupied blocks per task id, per block age (Count)
system.cpu.dcache.tags.ageTaskId_1024::2          259                       # Occupied blocks per task id, per block age (Count)
system.cpu.dcache.tags.ageTaskId_1024::3          240                       # Occupied blocks per task id, per block age (Count)
system.cpu.dcache.tags.ageTaskId_1024::4            5                       # Occupied blocks per task id, per block age (Count)
system.cpu.dcache.tags.ratioOccsTaskId::1024            1                       # Ratio of occupied blocks and all blocks, per task id (Ratio)
system.cpu.dcache.tags.tagAccesses        15355200673                       # Number of tag accesses (Count)
system.cpu.dcache.tags.dataAccesses       15355200673                       # Number of data accesses (Count)
system.cpu.dcache.tags.power_state.pwrStateResidencyTicks::UNDEFINED 4123266193080                       # Cumulative time (in ticks) in various power states (Tick)
system.cpu.dtb_walker_cache.demandHits::cpu.mmu.dtb.walker       782033                       # number of demand (read+write) hits (Count)
system.cpu.dtb_walker_cache.demandHits::total       782033                       # number of demand (read+write) hits (Count)
system.cpu.dtb_walker_cache.overallHits::cpu.mmu.dtb.walker       782033                       # number of overall hits (Count)
system.cpu.dtb_walker_cache.overallHits::total       782033                       # number of overall hits (Count)
system.cpu.dtb_walker_cache.demandMisses::cpu.mmu.dtb.walker       173217                       # number of demand (read+write) misses (Count)
system.cpu.dtb_walker_cache.demandMisses::total       173217                       # number of demand (read+write) misses (Count)
system.cpu.dtb_walker_cache.overallMisses::cpu.mmu.dtb.walker       173217                       # number of overall misses (Count)
system.cpu.dtb_walker_cache.overallMisses::total       173217                       # number of overall misses (Count)
system.cpu.dtb_walker_cache.demandMissLatency::cpu.mmu.dtb.walker    740638620                       # number of demand (read+write) miss ticks (Tick)
system.cpu.dtb_walker_cache.demandMissLatency::total    740638620                       # number of demand (read+write) miss ticks (Tick)
system.cpu.dtb_walker_cache.overallMissLatency::cpu.mmu.dtb.walker    740638620                       # number of overall miss ticks (Tick)
system.cpu.dtb_walker_cache.overallMissLatency::total    740638620                       # number of overall miss ticks (Tick)
system.cpu.dtb_walker_cache.demandAccesses::cpu.mmu.dtb.walker       955250                       # number of demand (read+write) accesses (Count)
system.cpu.dtb_walker_cache.demandAccesses::total       955250                       # number of demand (read+write) accesses (Count)
system.cpu.dtb_walker_cache.overallAccesses::cpu.mmu.dtb.walker       955250                       # number of overall (read+write) accesses (Count)
system.cpu.dtb_walker_cache.overallAccesses::total       955250                       # number of overall (read+write) accesses (Count)
system.cpu.dtb_walker_cache.demandMissRate::cpu.mmu.dtb.walker     0.181332                       # miss rate for demand accesses (Ratio)
system.cpu.dtb_walker_cache.demandMissRate::total     0.181332                       # miss rate for demand accesses (Ratio)
system.cpu.dtb_walker_cache.overallMissRate::cpu.mmu.dtb.walker     0.181332                       # miss rate for overall accesses (Ratio)
system.cpu.dtb_walker_cache.overallMissRate::total     0.181332                       # miss rate for overall accesses (Ratio)
system.cpu.dtb_walker_cache.demandAvgMissLatency::cpu.mmu.dtb.walker  4275.784825                       # average overall miss latency ((Cycle/Count))
system.cpu.dtb_walker_cache.demandAvgMissLatency::total  4275.784825                       # average overall miss latency ((Cycle/Count))
system.cpu.dtb_walker_cache.overallAvgMissLatency::cpu.mmu.dtb.walker  4275.784825                       # average overall miss latency ((Cycle/Count))
system.cpu.dtb_walker_cache.overallAvgMissLatency::total  4275.784825                       # average overall miss latency ((Cycle/Count))
system.cpu.dtb_walker_cache.blockedCycles::no_mshrs            0                       # number of cycles access was blocked (Cycle)
system.cpu.dtb_walker_cache.blockedCycles::no_targets            0                       # number of cycles access was blocked (Cycle)
system.cpu.dtb_walker_cache.blockedCauses::no_mshrs            0                       # number of times access was blocked (Count)
system.cpu.dtb_walker_cache.blockedCauses::no_targets            0                       # number of times access was blocked (Count)
system.cpu.dtb_walker_cache.avgBlocked::no_mshrs          nan                       # average number of cycles each access was blocked ((Cycle/Count))
system.cpu.dtb_walker_cache.avgBlocked::no_targets          nan                       # average number of cycles each access was blocked ((Cycle/Count))
system.cpu.dtb_walker_cache.writebacks::writebacks        15615                       # number of writebacks (Count)
system.cpu.dtb_walker_cache.writebacks::total        15615                       # number of writebacks (Count)
system.cpu.dtb_walker_cache.demandMshrMisses::cpu.mmu.dtb.walker       173217                       # number of demand (read+write) MSHR misses (Count)
system.cpu.dtb_walker_cache.demandMshrMisses::total       173217                       # number of demand (read+write) MSHR misses (Count)
system.cpu.dtb_walker_cache.overallMshrMisses::cpu.mmu.dtb.walker       173217                       # number of overall MSHR misses (Count)
system.cpu.dtb_walker_cache.overallMshrMisses::total       173217                       # number of overall MSHR misses (Count)
system.cpu.dtb_walker_cache.demandMshrMissLatency::cpu.mmu.dtb.walker    625276098                       # number of demand (read+write) MSHR miss ticks (Tick)
system.cpu.dtb_walker_cache.demandMshrMissLatency::total    625276098                       # number of demand (read+write) MSHR miss ticks (Tick)
system.cpu.dtb_walker_cache.overallMshrMissLatency::cpu.mmu.dtb.walker    625276098                       # number of overall MSHR miss ticks (Tick)
system.cpu.dtb_walker_cache.overallMshrMissLatency::total    625276098                       # number of overall MSHR miss ticks (Tick)
system.cpu.dtb_walker_cache.demandMshrMissRate::cpu.mmu.dtb.walker     0.181332                       # mshr miss ratio for demand accesses (Ratio)
system.cpu.dtb_walker_cache.demandMshrMissRate::total     0.181332                       # mshr miss ratio for demand accesses (Ratio)
system.cpu.dtb_walker_cache.overallMshrMissRate::cpu.mmu.dtb.walker     0.181332                       # mshr miss ratio for overall accesses (Ratio)
system.cpu.dtb_walker_cache.overallMshrMissRate::total     0.181332                       # mshr miss ratio for overall accesses (Ratio)
system.cpu.dtb_walker_cache.demandAvgMshrMissLatency::cpu.mmu.dtb.walker  3609.784825                       # average overall mshr miss latency ((Cycle/Count))
system.cpu.dtb_walker_cache.demandAvgMshrMissLatency::total  3609.784825                       # average overall mshr miss latency ((Cycle/Count))
system.cpu.dtb_walker_cache.overallAvgMshrMissLatency::cpu.mmu.dtb.walker  3609.784825                       # average overall mshr miss latency ((Cycle/Count))
system.cpu.dtb_walker_cache.overallAvgMshrMissLatency::total  3609.784825                       # average overall mshr miss latency ((Cycle/Count))
system.cpu.dtb_walker_cache.replacements        33971                       # number of replacements (Count)
system.cpu.dtb_walker_cache.ReadReq.hits::cpu.mmu.dtb.walker       691732                       # number of ReadReq hits (Count)
system.cpu.dtb_walker_cache.ReadReq.hits::total       691732                       # number of ReadReq hits (Count)
system.cpu.dtb_walker_cache.ReadReq.misses::cpu.mmu.dtb.walker        99524                       # number of ReadReq misses (Count)
system.cpu.dtb_walker_cache.ReadReq.misses::total        99524                       # number of ReadReq misses (Count)
system.cpu.dtb_walker_cache.ReadReq.missLatency::cpu.mmu.dtb.walker    565839261                       # number of ReadReq miss ticks (Tick)
system.cpu.dtb_walker_cache.ReadReq.missLatency::total    565839261                       # number of ReadReq miss ticks (Tick)
system.cpu.dtb_walker_cache.ReadReq.accesses::cpu.mmu.dtb.walker       791256                       # number of ReadReq accesses(hits+misses) (Count)
system.cpu.dtb_walker_cache.ReadReq.accesses::total       791256                       # number of ReadReq accesses(hits+misses) (Count)
system.cpu.dtb_walker_cache.ReadReq.missRate::cpu.mmu.dtb.walker     0.125780                       # miss rate for ReadReq accesses (Ratio)
system.cpu.dtb_walker_cache.ReadReq.missRate::total     0.125780                       # miss rate for ReadReq accesses (Ratio)
system.cpu.dtb_walker_cache.ReadReq.avgMissLatency::cpu.mmu.dtb.walker  5685.455378                       # average ReadReq miss latency ((Tick/Count))
system.cpu.dtb_walker_cache.ReadReq.avgMissLatency::total  5685.455378                       # average ReadReq miss latency ((Tick/Count))
system.cpu.dtb_walker_cache.ReadReq.mshrMisses::cpu.mmu.dtb.walker        99524                       # number of ReadReq MSHR misses (Count)
system.cpu.dtb_walker_cache.ReadReq.mshrMisses::total        99524                       # number of ReadReq MSHR misses (Count)
system.cpu.dtb_walker_cache.ReadReq.mshrMissLatency::cpu.mmu.dtb.walker    499556277                       # number of ReadReq MSHR miss ticks (Tick)
system.cpu.dtb_walker_cache.ReadReq.mshrMissLatency::total    499556277                       # number of ReadReq MSHR miss ticks (Tick)
system.cpu.dtb_walker_cache.ReadReq.mshrMissRate::cpu.mmu.dtb.walker     0.125780                       # mshr miss rate for ReadReq accesses (Ratio)
system.cpu.dtb_walker_cache.ReadReq.mshrMissRate::total     0.125780                       # mshr miss rate for ReadReq accesses (Ratio)
system.cpu.dtb_walker_cache.ReadReq.avgMshrMissLatency::cpu.mmu.dtb.walker  5019.455378                       # average ReadReq mshr miss latency ((Tick/Count))
system.cpu.dtb_walker_cache.ReadReq.avgMshrMissLatency::total  5019.455378                       # average ReadReq mshr miss latency ((Tick/Count))
system.cpu.dtb_walker_cache.WriteReq.hits::cpu.mmu.dtb.walker        90301                       # number of WriteReq hits (Count)
system.cpu.dtb_walker_cache.WriteReq.hits::total        90301                       # number of WriteReq hits (Count)
system.cpu.dtb_walker_cache.WriteReq.misses::cpu.mmu.dtb.walker        73693                       # number of WriteReq misses (Count)
system.cpu.dtb_walker_cache.WriteReq.misses::total        73693                       # number of WriteReq misses (Count)
system.cpu.dtb_walker_cache.WriteReq.missLatency::cpu.mmu.dtb.walker    174799359                       # number of WriteReq miss ticks (Tick)
system.cpu.dtb_walker_cache.WriteReq.missLatency::total    174799359                       # number of WriteReq miss ticks (Tick)
system.cpu.dtb_walker_cache.WriteReq.accesses::cpu.mmu.dtb.walker       163994                       # number of WriteReq accesses(hits+misses) (Count)
system.cpu.dtb_walker_cache.WriteReq.accesses::total       163994                       # number of WriteReq accesses(hits+misses) (Count)
system.cpu.dtb_walker_cache.WriteReq.missRate::cpu.mmu.dtb.walker     0.449364                       # miss rate for WriteReq accesses (Ratio)
system.cpu.dtb_walker_cache.WriteReq.missRate::total     0.449364                       # miss rate for WriteReq accesses (Ratio)
system.cpu.dtb_walker_cache.WriteReq.avgMissLatency::cpu.mmu.dtb.walker  2371.994070                       # average WriteReq miss latency ((Tick/Count))
system.cpu.dtb_walker_cache.WriteReq.avgMissLatency::total  2371.994070                       # average WriteReq miss latency ((Tick/Count))
system.cpu.dtb_walker_cache.WriteReq.mshrMisses::cpu.mmu.dtb.walker        73693                       # number of WriteReq MSHR misses (Count)
system.cpu.dtb_walker_cache.WriteReq.mshrMisses::total        73693                       # number of WriteReq MSHR misses (Count)
system.cpu.dtb_walker_cache.WriteReq.mshrMissLatency::cpu.mmu.dtb.walker    125719821                       # number of WriteReq MSHR miss ticks (Tick)
system.cpu.dtb_walker_cache.WriteReq.mshrMissLatency::total    125719821                       # number of WriteReq MSHR miss ticks (Tick)
system.cpu.dtb_walker_cache.WriteReq.mshrMissRate::cpu.mmu.dtb.walker     0.449364                       # mshr miss rate for WriteReq accesses (Ratio)
system.cpu.dtb_walker_cache.WriteReq.mshrMissRate::total     0.449364                       # mshr miss rate for WriteReq accesses (Ratio)
system.cpu.dtb_walker_cache.WriteReq.avgMshrMissLatency::cpu.mmu.dtb.walker  1705.994070                       # average WriteReq mshr miss latency ((Tick/Count))
system.cpu.dtb_walker_cache.WriteReq.avgMshrMissLatency::total  1705.994070                       # average WriteReq mshr miss latency ((Tick/Count))
system.cpu.dtb_walker_cache.power_state.pwrStateResidencyTicks::UNDEFINED 4123266193080                       # Cumulative time (in ticks) in various power states (Tick)
system.cpu.dtb_walker_cache.tags.tagsInUse    15.258742                       # Average ticks per tags in use ((Tick/Count))
system.cpu.dtb_walker_cache.tags.totalRefs       955250                       # Total number of references to valid blocks. (Count)
system.cpu.dtb_walker_cache.tags.sampledRefs        99524                       # Sample count of references to valid blocks. (Count)
system.cpu.dtb_walker_cache.tags.avgRefs     9.598187                       # Average number of references to valid blocks. ((Count/Count))
system.cpu.dtb_walker_cache.tags.warmupTick       367965                       # The tick when the warmup percentage was hit. (Tick)
system.cpu.dtb_walker_cache.tags.occupancies::cpu.mmu.dtb.walker    15.258742                       # Average occupied blocks per tick, per requestor ((Count/Tick))
system.cpu.dtb_walker_cache.tags.avgOccs::cpu.mmu.dtb.walker     0.953671                       # Average percentage of cache occupancy ((Ratio/Tick))
system.cpu.dtb_walker_cache.tags.avgOccs::total     0.953671                       # Average percentage of cache occupancy ((Ratio/Tick))
system.cpu.dtb_walker_cache.tags.occupanciesTaskId::1024            4                       # Occupied blocks per task id (Count)
system.cpu.dtb_walker_cache.tags.ageTaskId_1024::1            2                       # Occupied blocks per task id, per block age (Count)
system.cpu.dtb_walker_cache.tags.ageTaskId_1024::4            2                       # Occupied blocks per task id, per block age (Count)
system.cpu.dtb_walker_cache.tags.ratioOccsTaskId::1024     0.250000                       # Ratio of occupied blocks and all blocks, per task id (Ratio)
system.cpu.dtb_walker_cache.tags.tagAccesses      2010024                       # Number of tag accesses (Count)
system.cpu.dtb_walker_cache.tags.dataAccesses      2010024                       # Number of data accesses (Count)
system.cpu.dtb_walker_cache.tags.power_state.pwrStateResidencyTicks::UNDEFINED 4123266193080                       # Cumulative time (in ticks) in various power states (Tick)
system.cpu.exec_context.thread_0.numInsts   3050833648                       # Number of instructions committed (Count)
system.cpu.exec_context.thread_0.numUsrInsts            0                       # Number of user space instructions committed (Count)
system.cpu.exec_context.thread_0.numOps    4440436442                       # Number of ops (including micro ops) committed (Count)
system.cpu.exec_context.thread_0.numIntAluAccesses   4428446482                       # Number of integer alu accesses (Count)
system.cpu.exec_context.thread_0.numFpAluAccesses            0                       # Number of float alu accesses (Count)
system.cpu.exec_context.thread_0.numVecAluAccesses            0                       # Number of vector alu accesses (Count)
system.cpu.exec_context.thread_0.numCallsReturns     83175207                       # Number of times a function call or return occured (Count)
system.cpu.exec_context.thread_0.numCondCtrlInsts    269378892                       # Number of instructions that are conditional controls (Count)
system.cpu.exec_context.thread_0.numIntInsts   4428446482                       # Number of integer instructions (Count)
system.cpu.exec_context.thread_0.numFpInsts            0                       # Number of float instructions (Count)
system.cpu.exec_context.thread_0.numVecInsts            0                       # Number of vector instructions (Count)
system.cpu.exec_context.thread_0.numIntRegReads   7939404099                       # Number of times the integer registers were read (Count)
system.cpu.exec_context.thread_0.numIntRegWrites   3510818489                       # Number of times the integer registers were written (Count)
system.cpu.exec_context.thread_0.numFpRegReads            0                       # Number of times the floating registers were read (Count)
system.cpu.exec_context.thread_0.numFpRegWrites            0                       # Number of times the floating registers were written (Count)
system.cpu.exec_context.thread_0.numVecRegReads            0                       # Number of times the vector registers were read (Count)
system.cpu.exec_context.thread_0.numVecRegWrites            0                       # Number of times the vector registers were written (Count)
system.cpu.exec_context.thread_0.numVecPredRegReads            0                       # Number of times the predicate registers were read (Count)
system.cpu.exec_context.thread_0.numVecPredRegWrites            0                       # Number of times the predicate registers were written (Count)
system.cpu.exec_context.thread_0.numCCRegReads   1929155846                       # Number of times the CC registers were read (Count)
system.cpu.exec_context.thread_0.numCCRegWrites   1371676562                       # Number of times the CC registers were written (Count)
system.cpu.exec_context.thread_0.numMiscRegReads   2585840752                       # Number of times the Misc registers were read (Count)
system.cpu.exec_context.thread_0.numMiscRegWrites      1312360                       # Number of times the Misc registers were written (Count)
system.cpu.exec_context.thread_0.numMemRefs   1913464249                       # Number of memory refs (Count)
system.cpu.exec_context.thread_0.numLoadInsts   1352796189                       # Number of load instructions (Count)
system.cpu.exec_context.thread_0.numStoreInsts    560668060                       # Number of store instructions (Count)
system.cpu.exec_context.thread_0.numIdleCycles            0                       # Number of idle cycles (Cycle)
system.cpu.exec_context.thread_0.numBusyCycles  12382180760                       # Number of busy cycles (Cycle)
system.cpu.exec_context.thread_0.notIdleFraction            1                       # Percentage of non-idle cycles (Ratio)
system.cpu.exec_context.thread_0.idleFraction            0                       # Percentage of idle cycles (Ratio)
system.cpu.exec_context.thread_0.numBranches    356732223                       # Number of branches fetched (Count)
system.cpu.exec_context.thread_0.statExecutedInstType::No_OpClass      7581926      0.17%      0.17% # Class of executed instruction. (Count)
system.cpu.exec_context.thread_0.statExecutedInstType::IntAlu   2519317201     56.73%     56.91% # Class of executed instruction. (Count)
system.cpu.exec_context.thread_0.statExecutedInstType::IntMult       131426      0.00%     56.91% # Class of executed instruction. (Count)
system.cpu.exec_context.thread_0.statExecutedInstType::IntDiv         7196      0.00%     56.91% # Class of executed instruction. (Count)
system.cpu.exec_context.thread_0.statExecutedInstType::FloatAdd            0      0.00%     56.91% # Class of executed instruction. (Count)
system.cpu.exec_context.thread_0.statExecutedInstType::FloatCmp            0      0.00%     56.91% # Class of executed instruction. (Count)
system.cpu.exec_context.thread_0.statExecutedInstType::FloatCvt            0      0.00%     56.91% # Class of executed instruction. (Count)
system.cpu.exec_context.thread_0.statExecutedInstType::FloatMult            0      0.00%     56.91% # Class of executed instruction. (Count)
system.cpu.exec_context.thread_0.statExecutedInstType::FloatMultAcc            0      0.00%     56.91% # Class of executed instruction. (Count)
system.cpu.exec_context.thread_0.statExecutedInstType::FloatDiv            0      0.00%     56.91% # Class of executed instruction. (Count)
system.cpu.exec_context.thread_0.statExecutedInstType::FloatMisc            0      0.00%     56.91% # Class of executed instruction. (Count)
system.cpu.exec_context.thread_0.statExecutedInstType::FloatSqrt            0      0.00%     56.91% # Class of executed instruction. (Count)
system.cpu.exec_context.thread_0.statExecutedInstType::SimdAdd            0      0.00%     56.91% # Class of executed instruction. (Count)
system.cpu.exec_context.thread_0.statExecutedInstType::SimdAddAcc            0      0.00%     56.91% # Class of executed instruction. (Count)
system.cpu.exec_context.thread_0.statExecutedInstType::SimdAlu            0      0.00%     56.91% # Class of executed instruction. (Count)
system.cpu.exec_context.thread_0.statExecutedInstType::SimdCmp            0      0.00%     56.91% # Class of executed instruction. (Count)
system.cpu.exec_context.thread_0.statExecutedInstType::SimdCvt            0      0.00%     56.91% # Class of executed instruction. (Count)
system.cpu.exec_context.thread_0.statExecutedInstType::SimdMisc            0      0.00%     56.91% # Class of executed instruction. (Count)
system.cpu.exec_context.thread_0.statExecutedInstType::SimdMult            0      0.00%     56.91% # Class of executed instruction. (Count)
system.cpu.exec_context.thread_0.statExecutedInstType::SimdMultAcc            0      0.00%     56.91% # Class of executed instruction. (Count)
system.cpu.exec_context.thread_0.statExecutedInstType::SimdShift            0      0.00%     56.91% # Class of executed instruction. (Count)
system.cpu.exec_context.thread_0.statExecutedInstType::SimdShiftAcc            0      0.00%     56.91% # Class of executed instruction. (Count)
system.cpu.exec_context.thread_0.statExecutedInstType::SimdDiv            0      0.00%     56.91% # Class of executed instruction. (Count)
system.cpu.exec_context.thread_0.statExecutedInstType::SimdSqrt            0      0.00%     56.91% # Class of executed instruction. (Count)
system.cpu.exec_context.thread_0.statExecutedInstType::SimdFloatAdd            0      0.00%     56.91% # Class of executed instruction. (Count)
system.cpu.exec_context.thread_0.statExecutedInstType::SimdFloatAlu            0      0.00%     56.91% # Class of executed instruction. (Count)
system.cpu.exec_context.thread_0.statExecutedInstType::SimdFloatCmp            0      0.00%     56.91% # Class of executed instruction. (Count)
system.cpu.exec_context.thread_0.statExecutedInstType::SimdFloatCvt            0      0.00%     56.91% # Class of executed instruction. (Count)
system.cpu.exec_context.thread_0.statExecutedInstType::SimdFloatDiv            0      0.00%     56.91% # Class of executed instruction. (Count)
system.cpu.exec_context.thread_0.statExecutedInstType::SimdFloatMisc            0      0.00%     56.91% # Class of executed instruction. (Count)
system.cpu.exec_context.thread_0.statExecutedInstType::SimdFloatMult            0      0.00%     56.91% # Class of executed instruction. (Count)
system.cpu.exec_context.thread_0.statExecutedInstType::SimdFloatMultAcc            0      0.00%     56.91% # Class of executed instruction. (Count)
system.cpu.exec_context.thread_0.statExecutedInstType::SimdFloatSqrt            0      0.00%     56.91% # Class of executed instruction. (Count)
system.cpu.exec_context.thread_0.statExecutedInstType::SimdReduceAdd            0      0.00%     56.91% # Class of executed instruction. (Count)
system.cpu.exec_context.thread_0.statExecutedInstType::SimdReduceAlu            0      0.00%     56.91% # Class of executed instruction. (Count)
system.cpu.exec_context.thread_0.statExecutedInstType::SimdReduceCmp            0      0.00%     56.91% # Class of executed instruction. (Count)
system.cpu.exec_context.thread_0.statExecutedInstType::SimdFloatReduceAdd            0      0.00%     56.91% # Class of executed instruction. (Count)
system.cpu.exec_context.thread_0.statExecutedInstType::SimdFloatReduceCmp            0      0.00%     56.91% # Class of executed instruction. (Count)
system.cpu.exec_context.thread_0.statExecutedInstType::SimdAes            0      0.00%     56.91% # Class of executed instruction. (Count)
system.cpu.exec_context.thread_0.statExecutedInstType::SimdAesMix            0      0.00%     56.91% # Class of executed instruction. (Count)
system.cpu.exec_context.thread_0.statExecutedInstType::SimdSha1Hash            0      0.00%     56.91% # Class of executed instruction. (Count)
system.cpu.exec_context.thread_0.statExecutedInstType::SimdSha1Hash2            0      0.00%     56.91% # Class of executed instruction. (Count)
system.cpu.exec_context.thread_0.statExecutedInstType::SimdSha256Hash            0      0.00%     56.91% # Class of executed instruction. (Count)
system.cpu.exec_context.thread_0.statExecutedInstType::SimdSha256Hash2            0      0.00%     56.91% # Class of executed instruction. (Count)
system.cpu.exec_context.thread_0.statExecutedInstType::SimdShaSigma2            0      0.00%     56.91% # Class of executed instruction. (Count)
system.cpu.exec_context.thread_0.statExecutedInstType::SimdShaSigma3            0      0.00%     56.91% # Class of executed instruction. (Count)
system.cpu.exec_context.thread_0.statExecutedInstType::SimdPredAlu            0      0.00%     56.91% # Class of executed instruction. (Count)
system.cpu.exec_context.thread_0.statExecutedInstType::MemRead   1352796189     30.46%     87.37% # Class of executed instruction. (Count)
system.cpu.exec_context.thread_0.statExecutedInstType::MemWrite    560668060     12.63%    100.00% # Class of executed instruction. (Count)
system.cpu.exec_context.thread_0.statExecutedInstType::FloatMemRead            0      0.00%    100.00% # Class of executed instruction. (Count)
system.cpu.exec_context.thread_0.statExecutedInstType::FloatMemWrite            0      0.00%    100.00% # Class of executed instruction. (Count)
system.cpu.exec_context.thread_0.statExecutedInstType::IprAccess            0      0.00%    100.00% # Class of executed instruction. (Count)
system.cpu.exec_context.thread_0.statExecutedInstType::InstPrefetch            0      0.00%    100.00% # Class of executed instruction. (Count)
system.cpu.exec_context.thread_0.statExecutedInstType::total   4440501998                       # Class of executed instruction. (Count)
system.cpu.icache.demandHits::cpu.inst     4149452288                       # number of demand (read+write) hits (Count)
system.cpu.icache.demandHits::total        4149452288                       # number of demand (read+write) hits (Count)
system.cpu.icache.overallHits::cpu.inst    4149452288                       # number of overall hits (Count)
system.cpu.icache.overallHits::total       4149452288                       # number of overall hits (Count)
system.cpu.icache.demandMisses::cpu.inst          720                       # number of demand (read+write) misses (Count)
system.cpu.icache.demandMisses::total             720                       # number of demand (read+write) misses (Count)
system.cpu.icache.overallMisses::cpu.inst          720                       # number of overall misses (Count)
system.cpu.icache.overallMisses::total            720                       # number of overall misses (Count)
system.cpu.icache.demandMissLatency::cpu.inst     50419197                       # number of demand (read+write) miss ticks (Tick)
system.cpu.icache.demandMissLatency::total     50419197                       # number of demand (read+write) miss ticks (Tick)
system.cpu.icache.overallMissLatency::cpu.inst     50419197                       # number of overall miss ticks (Tick)
system.cpu.icache.overallMissLatency::total     50419197                       # number of overall miss ticks (Tick)
system.cpu.icache.demandAccesses::cpu.inst   4149453008                       # number of demand (read+write) accesses (Count)
system.cpu.icache.demandAccesses::total    4149453008                       # number of demand (read+write) accesses (Count)
system.cpu.icache.overallAccesses::cpu.inst   4149453008                       # number of overall (read+write) accesses (Count)
system.cpu.icache.overallAccesses::total   4149453008                       # number of overall (read+write) accesses (Count)
system.cpu.icache.demandMissRate::cpu.inst     0.000000                       # miss rate for demand accesses (Ratio)
system.cpu.icache.demandMissRate::total      0.000000                       # miss rate for demand accesses (Ratio)
system.cpu.icache.overallMissRate::cpu.inst     0.000000                       # miss rate for overall accesses (Ratio)
system.cpu.icache.overallMissRate::total     0.000000                       # miss rate for overall accesses (Ratio)
system.cpu.icache.demandAvgMissLatency::cpu.inst 70026.662500                       # average overall miss latency ((Cycle/Count))
system.cpu.icache.demandAvgMissLatency::total 70026.662500                       # average overall miss latency ((Cycle/Count))
system.cpu.icache.overallAvgMissLatency::cpu.inst 70026.662500                       # average overall miss latency ((Cycle/Count))
system.cpu.icache.overallAvgMissLatency::total 70026.662500                       # average overall miss latency ((Cycle/Count))
system.cpu.icache.blockedCycles::no_mshrs            0                       # number of cycles access was blocked (Cycle)
system.cpu.icache.blockedCycles::no_targets            0                       # number of cycles access was blocked (Cycle)
system.cpu.icache.blockedCauses::no_mshrs            0                       # number of times access was blocked (Count)
system.cpu.icache.blockedCauses::no_targets            0                       # number of times access was blocked (Count)
system.cpu.icache.avgBlocked::no_mshrs            nan                       # average number of cycles each access was blocked ((Cycle/Count))
system.cpu.icache.avgBlocked::no_targets          nan                       # average number of cycles each access was blocked ((Cycle/Count))
system.cpu.icache.writebacks::writebacks          211                       # number of writebacks (Count)
system.cpu.icache.writebacks::total               211                       # number of writebacks (Count)
system.cpu.icache.demandMshrMisses::cpu.inst          720                       # number of demand (read+write) MSHR misses (Count)
system.cpu.icache.demandMshrMisses::total          720                       # number of demand (read+write) MSHR misses (Count)
system.cpu.icache.overallMshrMisses::cpu.inst          720                       # number of overall MSHR misses (Count)
system.cpu.icache.overallMshrMisses::total          720                       # number of overall MSHR misses (Count)
system.cpu.icache.demandMshrMissLatency::cpu.inst     49939677                       # number of demand (read+write) MSHR miss ticks (Tick)
system.cpu.icache.demandMshrMissLatency::total     49939677                       # number of demand (read+write) MSHR miss ticks (Tick)
system.cpu.icache.overallMshrMissLatency::cpu.inst     49939677                       # number of overall MSHR miss ticks (Tick)
system.cpu.icache.overallMshrMissLatency::total     49939677                       # number of overall MSHR miss ticks (Tick)
system.cpu.icache.demandMshrMissRate::cpu.inst     0.000000                       # mshr miss ratio for demand accesses (Ratio)
system.cpu.icache.demandMshrMissRate::total     0.000000                       # mshr miss ratio for demand accesses (Ratio)
system.cpu.icache.overallMshrMissRate::cpu.inst     0.000000                       # mshr miss ratio for overall accesses (Ratio)
system.cpu.icache.overallMshrMissRate::total     0.000000                       # mshr miss ratio for overall accesses (Ratio)
system.cpu.icache.demandAvgMshrMissLatency::cpu.inst 69360.662500                       # average overall mshr miss latency ((Cycle/Count))
system.cpu.icache.demandAvgMshrMissLatency::total 69360.662500                       # average overall mshr miss latency ((Cycle/Count))
system.cpu.icache.overallAvgMshrMissLatency::cpu.inst 69360.662500                       # average overall mshr miss latency ((Cycle/Count))
system.cpu.icache.overallAvgMshrMissLatency::total 69360.662500                       # average overall mshr miss latency ((Cycle/Count))
system.cpu.icache.replacements                    211                       # number of replacements (Count)
system.cpu.icache.ReadReq.hits::cpu.inst   4149452288                       # number of ReadReq hits (Count)
system.cpu.icache.ReadReq.hits::total      4149452288                       # number of ReadReq hits (Count)
system.cpu.icache.ReadReq.misses::cpu.inst          720                       # number of ReadReq misses (Count)
system.cpu.icache.ReadReq.misses::total           720                       # number of ReadReq misses (Count)
system.cpu.icache.ReadReq.missLatency::cpu.inst     50419197                       # number of ReadReq miss ticks (Tick)
system.cpu.icache.ReadReq.missLatency::total     50419197                       # number of ReadReq miss ticks (Tick)
system.cpu.icache.ReadReq.accesses::cpu.inst   4149453008                       # number of ReadReq accesses(hits+misses) (Count)
system.cpu.icache.ReadReq.accesses::total   4149453008                       # number of ReadReq accesses(hits+misses) (Count)
system.cpu.icache.ReadReq.missRate::cpu.inst     0.000000                       # miss rate for ReadReq accesses (Ratio)
system.cpu.icache.ReadReq.missRate::total     0.000000                       # miss rate for ReadReq accesses (Ratio)
system.cpu.icache.ReadReq.avgMissLatency::cpu.inst 70026.662500                       # average ReadReq miss latency ((Tick/Count))
system.cpu.icache.ReadReq.avgMissLatency::total 70026.662500                       # average ReadReq miss latency ((Tick/Count))
system.cpu.icache.ReadReq.mshrMisses::cpu.inst          720                       # number of ReadReq MSHR misses (Count)
system.cpu.icache.ReadReq.mshrMisses::total          720                       # number of ReadReq MSHR misses (Count)
system.cpu.icache.ReadReq.mshrMissLatency::cpu.inst     49939677                       # number of ReadReq MSHR miss ticks (Tick)
system.cpu.icache.ReadReq.mshrMissLatency::total     49939677                       # number of ReadReq MSHR miss ticks (Tick)
system.cpu.icache.ReadReq.mshrMissRate::cpu.inst     0.000000                       # mshr miss rate for ReadReq accesses (Ratio)
system.cpu.icache.ReadReq.mshrMissRate::total     0.000000                       # mshr miss rate for ReadReq accesses (Ratio)
system.cpu.icache.ReadReq.avgMshrMissLatency::cpu.inst 69360.662500                       # average ReadReq mshr miss latency ((Tick/Count))
system.cpu.icache.ReadReq.avgMshrMissLatency::total 69360.662500                       # average ReadReq mshr miss latency ((Tick/Count))
system.cpu.icache.power_state.pwrStateResidencyTicks::UNDEFINED 4123266193080                       # Cumulative time (in ticks) in various power states (Tick)
system.cpu.icache.tags.tagsInUse           486.348326                       # Average ticks per tags in use ((Tick/Count))
system.cpu.icache.tags.totalRefs           4149453008                       # Total number of references to valid blocks. (Count)
system.cpu.icache.tags.sampledRefs                720                       # Sample count of references to valid blocks. (Count)
system.cpu.icache.tags.avgRefs           5763129.177778                       # Average number of references to valid blocks. ((Count/Count))
system.cpu.icache.tags.warmupTick              298701                       # The tick when the warmup percentage was hit. (Tick)
system.cpu.icache.tags.occupancies::cpu.inst   486.348326                       # Average occupied blocks per tick, per requestor ((Count/Tick))
system.cpu.icache.tags.avgOccs::cpu.inst     0.949899                       # Average percentage of cache occupancy ((Ratio/Tick))
system.cpu.icache.tags.avgOccs::total        0.949899                       # Average percentage of cache occupancy ((Ratio/Tick))
system.cpu.icache.tags.occupanciesTaskId::1024          508                       # Occupied blocks per task id (Count)
system.cpu.icache.tags.ageTaskId_1024::1            4                       # Occupied blocks per task id, per block age (Count)
system.cpu.icache.tags.ageTaskId_1024::2           38                       # Occupied blocks per task id, per block age (Count)
system.cpu.icache.tags.ageTaskId_1024::3            9                       # Occupied blocks per task id, per block age (Count)
system.cpu.icache.tags.ageTaskId_1024::4          457                       # Occupied blocks per task id, per block age (Count)
system.cpu.icache.tags.ratioOccsTaskId::1024     0.992188                       # Ratio of occupied blocks and all blocks, per task id (Ratio)
system.cpu.icache.tags.tagAccesses        33195624784                       # Number of tag accesses (Count)
system.cpu.icache.tags.dataAccesses       33195624784                       # Number of data accesses (Count)
system.cpu.icache.tags.power_state.pwrStateResidencyTicks::UNDEFINED 4123266193080                       # Cumulative time (in ticks) in various power states (Tick)
system.cpu.interrupts.clk_domain.clock           5328                       # Clock period in ticks (Tick)
system.cpu.itb_walker_cache.demandHits::cpu.mmu.itb.walker           10                       # number of demand (read+write) hits (Count)
system.cpu.itb_walker_cache.demandHits::total           10                       # number of demand (read+write) hits (Count)
system.cpu.itb_walker_cache.overallHits::cpu.mmu.itb.walker           10                       # number of overall hits (Count)
system.cpu.itb_walker_cache.overallHits::total           10                       # number of overall hits (Count)
system.cpu.itb_walker_cache.demandMisses::cpu.mmu.itb.walker           20                       # number of demand (read+write) misses (Count)
system.cpu.itb_walker_cache.demandMisses::total           20                       # number of demand (read+write) misses (Count)
system.cpu.itb_walker_cache.overallMisses::cpu.mmu.itb.walker           20                       # number of overall misses (Count)
system.cpu.itb_walker_cache.overallMisses::total           20                       # number of overall misses (Count)
system.cpu.itb_walker_cache.demandMissLatency::cpu.mmu.itb.walker       505494                       # number of demand (read+write) miss ticks (Tick)
system.cpu.itb_walker_cache.demandMissLatency::total       505494                       # number of demand (read+write) miss ticks (Tick)
system.cpu.itb_walker_cache.overallMissLatency::cpu.mmu.itb.walker       505494                       # number of overall miss ticks (Tick)
system.cpu.itb_walker_cache.overallMissLatency::total       505494                       # number of overall miss ticks (Tick)
system.cpu.itb_walker_cache.demandAccesses::cpu.mmu.itb.walker           30                       # number of demand (read+write) accesses (Count)
system.cpu.itb_walker_cache.demandAccesses::total           30                       # number of demand (read+write) accesses (Count)
system.cpu.itb_walker_cache.overallAccesses::cpu.mmu.itb.walker           30                       # number of overall (read+write) accesses (Count)
system.cpu.itb_walker_cache.overallAccesses::total           30                       # number of overall (read+write) accesses (Count)
system.cpu.itb_walker_cache.demandMissRate::cpu.mmu.itb.walker     0.666667                       # miss rate for demand accesses (Ratio)
system.cpu.itb_walker_cache.demandMissRate::total     0.666667                       # miss rate for demand accesses (Ratio)
system.cpu.itb_walker_cache.overallMissRate::cpu.mmu.itb.walker     0.666667                       # miss rate for overall accesses (Ratio)
system.cpu.itb_walker_cache.overallMissRate::total     0.666667                       # miss rate for overall accesses (Ratio)
system.cpu.itb_walker_cache.demandAvgMissLatency::cpu.mmu.itb.walker 25274.700000                       # average overall miss latency ((Cycle/Count))
system.cpu.itb_walker_cache.demandAvgMissLatency::total 25274.700000                       # average overall miss latency ((Cycle/Count))
system.cpu.itb_walker_cache.overallAvgMissLatency::cpu.mmu.itb.walker 25274.700000                       # average overall miss latency ((Cycle/Count))
system.cpu.itb_walker_cache.overallAvgMissLatency::total 25274.700000                       # average overall miss latency ((Cycle/Count))
system.cpu.itb_walker_cache.blockedCycles::no_mshrs            0                       # number of cycles access was blocked (Cycle)
system.cpu.itb_walker_cache.blockedCycles::no_targets            0                       # number of cycles access was blocked (Cycle)
system.cpu.itb_walker_cache.blockedCauses::no_mshrs            0                       # number of times access was blocked (Count)
system.cpu.itb_walker_cache.blockedCauses::no_targets            0                       # number of times access was blocked (Count)
system.cpu.itb_walker_cache.avgBlocked::no_mshrs          nan                       # average number of cycles each access was blocked ((Cycle/Count))
system.cpu.itb_walker_cache.avgBlocked::no_targets          nan                       # average number of cycles each access was blocked ((Cycle/Count))
system.cpu.itb_walker_cache.writebacks::writebacks            8                       # number of writebacks (Count)
system.cpu.itb_walker_cache.writebacks::total            8                       # number of writebacks (Count)
system.cpu.itb_walker_cache.demandMshrMisses::cpu.mmu.itb.walker           20                       # number of demand (read+write) MSHR misses (Count)
system.cpu.itb_walker_cache.demandMshrMisses::total           20                       # number of demand (read+write) MSHR misses (Count)
system.cpu.itb_walker_cache.overallMshrMisses::cpu.mmu.itb.walker           20                       # number of overall MSHR misses (Count)
system.cpu.itb_walker_cache.overallMshrMisses::total           20                       # number of overall MSHR misses (Count)
system.cpu.itb_walker_cache.demandMshrMissLatency::cpu.mmu.itb.walker       492174                       # number of demand (read+write) MSHR miss ticks (Tick)
system.cpu.itb_walker_cache.demandMshrMissLatency::total       492174                       # number of demand (read+write) MSHR miss ticks (Tick)
system.cpu.itb_walker_cache.overallMshrMissLatency::cpu.mmu.itb.walker       492174                       # number of overall MSHR miss ticks (Tick)
system.cpu.itb_walker_cache.overallMshrMissLatency::total       492174                       # number of overall MSHR miss ticks (Tick)
system.cpu.itb_walker_cache.demandMshrMissRate::cpu.mmu.itb.walker     0.666667                       # mshr miss ratio for demand accesses (Ratio)
system.cpu.itb_walker_cache.demandMshrMissRate::total     0.666667                       # mshr miss ratio for demand accesses (Ratio)
system.cpu.itb_walker_cache.overallMshrMissRate::cpu.mmu.itb.walker     0.666667                       # mshr miss ratio for overall accesses (Ratio)
system.cpu.itb_walker_cache.overallMshrMissRate::total     0.666667                       # mshr miss ratio for overall accesses (Ratio)
system.cpu.itb_walker_cache.demandAvgMshrMissLatency::cpu.mmu.itb.walker 24608.700000                       # average overall mshr miss latency ((Cycle/Count))
system.cpu.itb_walker_cache.demandAvgMshrMissLatency::total 24608.700000                       # average overall mshr miss latency ((Cycle/Count))
system.cpu.itb_walker_cache.overallAvgMshrMissLatency::cpu.mmu.itb.walker 24608.700000                       # average overall mshr miss latency ((Cycle/Count))
system.cpu.itb_walker_cache.overallAvgMshrMissLatency::total 24608.700000                       # average overall mshr miss latency ((Cycle/Count))
system.cpu.itb_walker_cache.replacements           12                       # number of replacements (Count)
system.cpu.itb_walker_cache.ReadReq.misses::cpu.mmu.itb.walker           20                       # number of ReadReq misses (Count)
system.cpu.itb_walker_cache.ReadReq.misses::total           20                       # number of ReadReq misses (Count)
system.cpu.itb_walker_cache.ReadReq.missLatency::cpu.mmu.itb.walker       505494                       # number of ReadReq miss ticks (Tick)
system.cpu.itb_walker_cache.ReadReq.missLatency::total       505494                       # number of ReadReq miss ticks (Tick)
system.cpu.itb_walker_cache.ReadReq.accesses::cpu.mmu.itb.walker           20                       # number of ReadReq accesses(hits+misses) (Count)
system.cpu.itb_walker_cache.ReadReq.accesses::total           20                       # number of ReadReq accesses(hits+misses) (Count)
system.cpu.itb_walker_cache.ReadReq.missRate::cpu.mmu.itb.walker            1                       # miss rate for ReadReq accesses (Ratio)
system.cpu.itb_walker_cache.ReadReq.missRate::total            1                       # miss rate for ReadReq accesses (Ratio)
system.cpu.itb_walker_cache.ReadReq.avgMissLatency::cpu.mmu.itb.walker 25274.700000                       # average ReadReq miss latency ((Tick/Count))
system.cpu.itb_walker_cache.ReadReq.avgMissLatency::total 25274.700000                       # average ReadReq miss latency ((Tick/Count))
system.cpu.itb_walker_cache.ReadReq.mshrMisses::cpu.mmu.itb.walker           20                       # number of ReadReq MSHR misses (Count)
system.cpu.itb_walker_cache.ReadReq.mshrMisses::total           20                       # number of ReadReq MSHR misses (Count)
system.cpu.itb_walker_cache.ReadReq.mshrMissLatency::cpu.mmu.itb.walker       492174                       # number of ReadReq MSHR miss ticks (Tick)
system.cpu.itb_walker_cache.ReadReq.mshrMissLatency::total       492174                       # number of ReadReq MSHR miss ticks (Tick)
system.cpu.itb_walker_cache.ReadReq.mshrMissRate::cpu.mmu.itb.walker            1                       # mshr miss rate for ReadReq accesses (Ratio)
system.cpu.itb_walker_cache.ReadReq.mshrMissRate::total            1                       # mshr miss rate for ReadReq accesses (Ratio)
system.cpu.itb_walker_cache.ReadReq.avgMshrMissLatency::cpu.mmu.itb.walker 24608.700000                       # average ReadReq mshr miss latency ((Tick/Count))
system.cpu.itb_walker_cache.ReadReq.avgMshrMissLatency::total 24608.700000                       # average ReadReq mshr miss latency ((Tick/Count))
system.cpu.itb_walker_cache.WriteReq.hits::cpu.mmu.itb.walker           10                       # number of WriteReq hits (Count)
system.cpu.itb_walker_cache.WriteReq.hits::total           10                       # number of WriteReq hits (Count)
system.cpu.itb_walker_cache.WriteReq.accesses::cpu.mmu.itb.walker           10                       # number of WriteReq accesses(hits+misses) (Count)
system.cpu.itb_walker_cache.WriteReq.accesses::total           10                       # number of WriteReq accesses(hits+misses) (Count)
system.cpu.itb_walker_cache.power_state.pwrStateResidencyTicks::UNDEFINED 4123266193080                       # Cumulative time (in ticks) in various power states (Tick)
system.cpu.itb_walker_cache.tags.tagsInUse     1.988950                       # Average ticks per tags in use ((Tick/Count))
system.cpu.itb_walker_cache.tags.totalRefs           30                       # Total number of references to valid blocks. (Count)
system.cpu.itb_walker_cache.tags.sampledRefs           20                       # Sample count of references to valid blocks. (Count)
system.cpu.itb_walker_cache.tags.avgRefs     1.500000                       # Average number of references to valid blocks. ((Count/Count))
system.cpu.itb_walker_cache.tags.warmupTick        84915                       # The tick when the warmup percentage was hit. (Tick)
system.cpu.itb_walker_cache.tags.occupancies::cpu.mmu.itb.walker     1.988950                       # Average occupied blocks per tick, per requestor ((Count/Tick))
system.cpu.itb_walker_cache.tags.avgOccs::cpu.mmu.itb.walker     0.124309                       # Average percentage of cache occupancy ((Ratio/Tick))
system.cpu.itb_walker_cache.tags.avgOccs::total     0.124309                       # Average percentage of cache occupancy ((Ratio/Tick))
system.cpu.itb_walker_cache.tags.occupanciesTaskId::1024            2                       # Occupied blocks per task id (Count)
system.cpu.itb_walker_cache.tags.ageTaskId_1024::2            2                       # Occupied blocks per task id, per block age (Count)
system.cpu.itb_walker_cache.tags.ratioOccsTaskId::1024     0.125000                       # Ratio of occupied blocks and all blocks, per task id (Ratio)
system.cpu.itb_walker_cache.tags.tagAccesses           80                       # Number of tag accesses (Count)
system.cpu.itb_walker_cache.tags.dataAccesses           80                       # Number of data accesses (Count)
system.cpu.itb_walker_cache.tags.power_state.pwrStateResidencyTicks::UNDEFINED 4123266193080                       # Cumulative time (in ticks) in various power states (Tick)
system.cpu.l2cache.demandHits::cpu.mmu.dtb.walker        18443                       # number of demand (read+write) hits (Count)
system.cpu.l2cache.demandHits::cpu.mmu.itb.walker            9                       # number of demand (read+write) hits (Count)
system.cpu.l2cache.demandHits::cpu.inst            21                       # number of demand (read+write) hits (Count)
system.cpu.l2cache.demandHits::cpu.data      46602658                       # number of demand (read+write) hits (Count)
system.cpu.l2cache.demandHits::total         46621131                       # number of demand (read+write) hits (Count)
system.cpu.l2cache.overallHits::cpu.mmu.dtb.walker        18443                       # number of overall hits (Count)
system.cpu.l2cache.overallHits::cpu.mmu.itb.walker            9                       # number of overall hits (Count)
system.cpu.l2cache.overallHits::cpu.inst           21                       # number of overall hits (Count)
system.cpu.l2cache.overallHits::cpu.data     46602658                       # number of overall hits (Count)
system.cpu.l2cache.overallHits::total        46621131                       # number of overall hits (Count)
system.cpu.l2cache.demandMisses::cpu.mmu.dtb.walker         7495                       # number of demand (read+write) misses (Count)
system.cpu.l2cache.demandMisses::cpu.mmu.itb.walker            7                       # number of demand (read+write) misses (Count)
system.cpu.l2cache.demandMisses::cpu.inst          699                       # number of demand (read+write) misses (Count)
system.cpu.l2cache.demandMisses::cpu.data       918874                       # number of demand (read+write) misses (Count)
system.cpu.l2cache.demandMisses::total         927075                       # number of demand (read+write) misses (Count)
system.cpu.l2cache.overallMisses::cpu.mmu.dtb.walker         7495                       # number of overall misses (Count)
system.cpu.l2cache.overallMisses::cpu.mmu.itb.walker            7                       # number of overall misses (Count)
system.cpu.l2cache.overallMisses::cpu.inst          699                       # number of overall misses (Count)
system.cpu.l2cache.overallMisses::cpu.data       918874                       # number of overall misses (Count)
system.cpu.l2cache.overallMisses::total        927075                       # number of overall misses (Count)
system.cpu.l2cache.demandMissLatency::cpu.mmu.dtb.walker    286391322                       # number of demand (read+write) miss ticks (Tick)
system.cpu.l2cache.demandMissLatency::cpu.mmu.itb.walker       437229                       # number of demand (read+write) miss ticks (Tick)
system.cpu.l2cache.demandMissLatency::cpu.inst     49387230                       # number of demand (read+write) miss ticks (Tick)
system.cpu.l2cache.demandMissLatency::cpu.data  67219202844                       # number of demand (read+write) miss ticks (Tick)
system.cpu.l2cache.demandMissLatency::total  67555418625                       # number of demand (read+write) miss ticks (Tick)
system.cpu.l2cache.overallMissLatency::cpu.mmu.dtb.walker    286391322                       # number of overall miss ticks (Tick)
system.cpu.l2cache.overallMissLatency::cpu.mmu.itb.walker       437229                       # number of overall miss ticks (Tick)
system.cpu.l2cache.overallMissLatency::cpu.inst     49387230                       # number of overall miss ticks (Tick)
system.cpu.l2cache.overallMissLatency::cpu.data  67219202844                       # number of overall miss ticks (Tick)
system.cpu.l2cache.overallMissLatency::total  67555418625                       # number of overall miss ticks (Tick)
system.cpu.l2cache.demandAccesses::cpu.mmu.dtb.walker        25938                       # number of demand (read+write) accesses (Count)
system.cpu.l2cache.demandAccesses::cpu.mmu.itb.walker           16                       # number of demand (read+write) accesses (Count)
system.cpu.l2cache.demandAccesses::cpu.inst          720                       # number of demand (read+write) accesses (Count)
system.cpu.l2cache.demandAccesses::cpu.data     47521532                       # number of demand (read+write) accesses (Count)
system.cpu.l2cache.demandAccesses::total     47548206                       # number of demand (read+write) accesses (Count)
system.cpu.l2cache.overallAccesses::cpu.mmu.dtb.walker        25938                       # number of overall (read+write) accesses (Count)
system.cpu.l2cache.overallAccesses::cpu.mmu.itb.walker           16                       # number of overall (read+write) accesses (Count)
system.cpu.l2cache.overallAccesses::cpu.inst          720                       # number of overall (read+write) accesses (Count)
system.cpu.l2cache.overallAccesses::cpu.data     47521532                       # number of overall (read+write) accesses (Count)
system.cpu.l2cache.overallAccesses::total     47548206                       # number of overall (read+write) accesses (Count)
system.cpu.l2cache.demandMissRate::cpu.mmu.dtb.walker     0.288958                       # miss rate for demand accesses (Ratio)
system.cpu.l2cache.demandMissRate::cpu.mmu.itb.walker     0.437500                       # miss rate for demand accesses (Ratio)
system.cpu.l2cache.demandMissRate::cpu.inst     0.970833                       # miss rate for demand accesses (Ratio)
system.cpu.l2cache.demandMissRate::cpu.data     0.019336                       # miss rate for demand accesses (Ratio)
system.cpu.l2cache.demandMissRate::total     0.019498                       # miss rate for demand accesses (Ratio)
system.cpu.l2cache.overallMissRate::cpu.mmu.dtb.walker     0.288958                       # miss rate for overall accesses (Ratio)
system.cpu.l2cache.overallMissRate::cpu.mmu.itb.walker     0.437500                       # miss rate for overall accesses (Ratio)
system.cpu.l2cache.overallMissRate::cpu.inst     0.970833                       # miss rate for overall accesses (Ratio)
system.cpu.l2cache.overallMissRate::cpu.data     0.019336                       # miss rate for overall accesses (Ratio)
system.cpu.l2cache.overallMissRate::total     0.019498                       # miss rate for overall accesses (Ratio)
system.cpu.l2cache.demandAvgMissLatency::cpu.mmu.dtb.walker 38210.983589                       # average overall miss latency ((Cycle/Count))
system.cpu.l2cache.demandAvgMissLatency::cpu.mmu.itb.walker 62461.285714                       # average overall miss latency ((Cycle/Count))
system.cpu.l2cache.demandAvgMissLatency::cpu.inst 70654.120172                       # average overall miss latency ((Cycle/Count))
system.cpu.l2cache.demandAvgMissLatency::cpu.data 73153.884911                       # average overall miss latency ((Cycle/Count))
system.cpu.l2cache.demandAvgMissLatency::total 72869.421163                       # average overall miss latency ((Cycle/Count))
system.cpu.l2cache.overallAvgMissLatency::cpu.mmu.dtb.walker 38210.983589                       # average overall miss latency ((Cycle/Count))
system.cpu.l2cache.overallAvgMissLatency::cpu.mmu.itb.walker 62461.285714                       # average overall miss latency ((Cycle/Count))
system.cpu.l2cache.overallAvgMissLatency::cpu.inst 70654.120172                       # average overall miss latency ((Cycle/Count))
system.cpu.l2cache.overallAvgMissLatency::cpu.data 73153.884911                       # average overall miss latency ((Cycle/Count))
system.cpu.l2cache.overallAvgMissLatency::total 72869.421163                       # average overall miss latency ((Cycle/Count))
system.cpu.l2cache.blockedCycles::no_mshrs            0                       # number of cycles access was blocked (Cycle)
system.cpu.l2cache.blockedCycles::no_targets            0                       # number of cycles access was blocked (Cycle)
system.cpu.l2cache.blockedCauses::no_mshrs            0                       # number of times access was blocked (Count)
system.cpu.l2cache.blockedCauses::no_targets            0                       # number of times access was blocked (Count)
system.cpu.l2cache.avgBlocked::no_mshrs           nan                       # average number of cycles each access was blocked ((Cycle/Count))
system.cpu.l2cache.avgBlocked::no_targets          nan                       # average number of cycles each access was blocked ((Cycle/Count))
system.cpu.l2cache.writebacks::writebacks       128075                       # number of writebacks (Count)
system.cpu.l2cache.writebacks::total           128075                       # number of writebacks (Count)
system.cpu.l2cache.demandMshrMisses::cpu.mmu.dtb.walker         7495                       # number of demand (read+write) MSHR misses (Count)
system.cpu.l2cache.demandMshrMisses::cpu.mmu.itb.walker            7                       # number of demand (read+write) MSHR misses (Count)
system.cpu.l2cache.demandMshrMisses::cpu.inst          699                       # number of demand (read+write) MSHR misses (Count)
system.cpu.l2cache.demandMshrMisses::cpu.data       918874                       # number of demand (read+write) MSHR misses (Count)
system.cpu.l2cache.demandMshrMisses::total       927075                       # number of demand (read+write) MSHR misses (Count)
system.cpu.l2cache.overallMshrMisses::cpu.mmu.dtb.walker         7495                       # number of overall MSHR misses (Count)
system.cpu.l2cache.overallMshrMisses::cpu.mmu.itb.walker            7                       # number of overall MSHR misses (Count)
system.cpu.l2cache.overallMshrMisses::cpu.inst          699                       # number of overall MSHR misses (Count)
system.cpu.l2cache.overallMshrMisses::cpu.data       918874                       # number of overall MSHR misses (Count)
system.cpu.l2cache.overallMshrMisses::total       927075                       # number of overall MSHR misses (Count)
system.cpu.l2cache.overallMshrUncacheable::cpu.data        13517                       # number of overall MSHR uncacheable misses (Count)
system.cpu.l2cache.overallMshrUncacheable::total        13517                       # number of overall MSHR uncacheable misses (Count)
system.cpu.l2cache.demandMshrMissLatency::cpu.mmu.dtb.walker    263928807                       # number of demand (read+write) MSHR miss ticks (Tick)
system.cpu.l2cache.demandMshrMissLatency::cpu.mmu.itb.walker       416250                       # number of demand (read+write) MSHR miss ticks (Tick)
system.cpu.l2cache.demandMshrMissLatency::cpu.inst     47292327                       # number of demand (read+write) MSHR miss ticks (Tick)
system.cpu.l2cache.demandMshrMissLatency::cpu.data  64465337466                       # number of demand (read+write) MSHR miss ticks (Tick)
system.cpu.l2cache.demandMshrMissLatency::total  64776974850                       # number of demand (read+write) MSHR miss ticks (Tick)
[...]
system.mem_ctrls.nvm.bytesPerBank::1984-1999            9      0.00%     99.95% # Bytes read within a bank before loading new bank (Byte)
system.mem_ctrls.nvm.bytesPerBank::2048-2063            8      0.00%     99.95% # Bytes read within a bank before loading new bank (Byte)
system.mem_ctrls.nvm.bytesPerBank::2112-2127            8      0.00%     99.95% # Bytes read within a bank before loading new bank (Byte)
system.mem_ctrls.nvm.bytesPerBank::2176-2191           18      0.01%     99.96% # Bytes read within a bank before loading new bank (Byte)
system.mem_ctrls.nvm.bytesPerBank::2240-2255           12      0.00%     99.96% # Bytes read within a bank before loading new bank (Byte)
system.mem_ctrls.nvm.bytesPerBank::2304-2319            9      0.00%     99.97% # Bytes read within a bank before loading new bank (Byte)
system.mem_ctrls.nvm.bytesPerBank::2368-2383            5      0.00%     99.97% # Bytes read within a bank before loading new bank (Byte)
system.mem_ctrls.nvm.bytesPerBank::2432-2447           11      0.00%     99.97% # Bytes read within a bank before loading new bank (Byte)
system.mem_ctrls.nvm.bytesPerBank::2496-2511            7      0.00%     99.97% # Bytes read within a bank before loading new bank (Byte)
system.mem_ctrls.nvm.bytesPerBank::2560-2575            3      0.00%     99.98% # Bytes read within a bank before loading new bank (Byte)
system.mem_ctrls.nvm.bytesPerBank::2624-2639            4      0.00%     99.98% # Bytes read within a bank before loading new bank (Byte)
system.mem_ctrls.nvm.bytesPerBank::2688-2703            6      0.00%     99.98% # Bytes read within a bank before loading new bank (Byte)
system.mem_ctrls.nvm.bytesPerBank::2752-2767            8      0.00%     99.98% # Bytes read within a bank before loading new bank (Byte)
system.mem_ctrls.nvm.bytesPerBank::2816-2831            3      0.00%     99.98% # Bytes read within a bank before loading new bank (Byte)
system.mem_ctrls.nvm.bytesPerBank::2880-2895            5      0.00%     99.98% # Bytes read within a bank before loading new bank (Byte)
system.mem_ctrls.nvm.bytesPerBank::2944-2959            1      0.00%     99.99% # Bytes read within a bank before loading new bank (Byte)
system.mem_ctrls.nvm.bytesPerBank::3008-3023            5      0.00%     99.99% # Bytes read within a bank before loading new bank (Byte)
system.mem_ctrls.nvm.bytesPerBank::3072-3087            6      0.00%     99.99% # Bytes read within a bank before loading new bank (Byte)
system.mem_ctrls.nvm.bytesPerBank::3136-3151            2      0.00%     99.99% # Bytes read within a bank before loading new bank (Byte)
system.mem_ctrls.nvm.bytesPerBank::3200-3215            4      0.00%     99.99% # Bytes read within a bank before loading new bank (Byte)
system.mem_ctrls.nvm.bytesPerBank::3264-3279            6      0.00%     99.99% # Bytes read within a bank before loading new bank (Byte)
system.mem_ctrls.nvm.bytesPerBank::3328-3343            4      0.00%     99.99% # Bytes read within a bank before loading new bank (Byte)
system.mem_ctrls.nvm.bytesPerBank::3392-3407            2      0.00%    100.00% # Bytes read within a bank before loading new bank (Byte)
system.mem_ctrls.nvm.bytesPerBank::3456-3471            6      0.00%    100.00% # Bytes read within a bank before loading new bank (Byte)
system.mem_ctrls.nvm.bytesPerBank::3520-3535            1      0.00%    100.00% # Bytes read within a bank before loading new bank (Byte)
system.mem_ctrls.nvm.bytesPerBank::3584-3599            3      0.00%    100.00% # Bytes read within a bank before loading new bank (Byte)
system.mem_ctrls.nvm.bytesPerBank::3648-3663            1      0.00%    100.00% # Bytes read within a bank before loading new bank (Byte)
system.mem_ctrls.nvm.bytesPerBank::3712-3727            2      0.00%    100.00% # Bytes read within a bank before loading new bank (Byte)
system.mem_ctrls.nvm.bytesPerBank::total       282629                       # Bytes read within a bank before loading new bank (Byte)
system.mem_ctrls.nvm.power_state.pwrStateResidencyTicks::UNDEFINED 4123266193080                       # Cumulative time (in ticks) in various power states (Tick)
system.mem_ctrls.power_state.pwrStateResidencyTicks::UNDEFINED 4123266193080                       # Cumulative time (in ticks) in various power states (Tick)
system.membus.transDist::ReadReq                 1476                       # Transaction distribution (Count)
system.membus.transDist::ReadResp              693383                       # Transaction distribution (Count)
system.membus.transDist::WriteReq               12041                       # Transaction distribution (Count)
system.membus.transDist::WriteResp              12041                       # Transaction distribution (Count)
system.membus.transDist::WritebackDirty        111441                       # Transaction distribution (Count)
system.membus.transDist::WriteClean            406582                       # Transaction distribution (Count)
system.membus.transDist::CleanEvict            298730                       # Transaction distribution (Count)
system.membus.transDist::UpgradeReq             73722                       # Transaction distribution (Count)
system.membus.transDist::ReadExReq             174811                       # Transaction distribution (Count)
system.membus.transDist::ReadExResp            174811                       # Transaction distribution (Count)
system.membus.transDist::ReadSharedReq         691907                       # Transaction distribution (Count)
system.membus.transDist::CleanInvalidReq       574355                       # Transaction distribution (Count)
system.membus.pktCount_system.l3.mem_side_port::system.bridge.cpu_side_port         5832                       # Packet count per connected requestor and responder (Count)
system.membus.pktCount_system.l3.mem_side_port::system.cpu.interrupts.pio        21202                       # Packet count per connected requestor and responder (Count)
system.membus.pktCount_system.l3.mem_side_port::system.mem_ctrls.port      3198266                       # Packet count per connected requestor and responder (Count)
system.membus.pktCount_system.l3.mem_side_port::total      3225300                       # Packet count per connected requestor and responder (Count)
system.membus.pktCount::total                 3225300                       # Packet count per connected requestor and responder (Count)
system.membus.pktSize_system.l3.mem_side_port::system.bridge.cpu_side_port         2941                       # Cumulative packet size per connected requestor and responder (Byte)
system.membus.pktSize_system.l3.mem_side_port::system.cpu.interrupts.pio        42404                       # Cumulative packet size per connected requestor and responder (Byte)
system.membus.pktSize_system.l3.mem_side_port::system.mem_ctrls.port     88623424                       # Cumulative packet size per connected requestor and responder (Byte)
system.membus.pktSize_system.l3.mem_side_port::total     88668769                       # Cumulative packet size per connected requestor and responder (Byte)
system.membus.pktSize::total                 88668769                       # Cumulative packet size per connected requestor and responder (Byte)
system.membus.snoops                            73706                       # Total snoops (Count)
system.membus.snoopTraffic                          0                       # Total snoop traffic (Byte)
system.membus.snoopFanout::samples            1528312                       # Request fanout histogram (Count)
system.membus.snoopFanout::mean                     0                       # Request fanout histogram (Count)
system.membus.snoopFanout::stdev                    0                       # Request fanout histogram (Count)
system.membus.snoopFanout::underflows               0      0.00%      0.00% # Request fanout histogram (Count)
system.membus.snoopFanout::0                  1528312    100.00%    100.00% # Request fanout histogram (Count)
system.membus.snoopFanout::1                        0      0.00%    100.00% # Request fanout histogram (Count)
system.membus.snoopFanout::2                        0      0.00%    100.00% # Request fanout histogram (Count)
system.membus.snoopFanout::overflows                0      0.00%    100.00% # Request fanout histogram (Count)
system.membus.snoopFanout::min_value                0                       # Request fanout histogram (Count)
system.membus.snoopFanout::max_value                0                       # Request fanout histogram (Count)
system.membus.snoopFanout::total              1528312                       # Request fanout histogram (Count)
system.membus.badaddr_responder.power_state.pwrStateResidencyTicks::UNDEFINED 4123266193080                       # Cumulative time (in ticks) in various power states (Tick)
system.membus.power_state.pwrStateResidencyTicks::UNDEFINED 4123266193080                       # Cumulative time (in ticks) in various power states (Tick)
system.membus.reqLayer0.occupancy             6504908                       # Layer occupancy (ticks) (Tick)
system.membus.reqLayer0.utilization               0.0                       # Layer utilization (Ratio)
system.membus.reqLayer1.occupancy            26318520                       # Layer occupancy (ticks) (Tick)
system.membus.reqLayer1.utilization               0.0                       # Layer utilization (Ratio)
system.membus.reqLayer3.occupancy          5094673318                       # Layer occupancy (ticks) (Tick)
system.membus.reqLayer3.utilization               0.0                       # Layer utilization (Ratio)
system.membus.respLayer3.occupancy         4434941456                       # Layer occupancy (ticks) (Tick)
system.membus.respLayer3.utilization              0.0                       # Layer utilization (Ratio)
system.membus.snoop_filter.totRequests        1924966                       # Total number of requests made to the snoop filter. (Count)
system.membus.snoop_filter.hitSingleRequests       907204                       # Number of requests hitting in the snoop filter with a single holder of the requested data. (Count)
system.membus.snoop_filter.hitMultiRequests            0                       # Number of requests hitting in the snoop filter with multiple (>1) holders of the requested data. (Count)
system.membus.snoop_filter.totSnoops                0                       # Total number of snoops made to the snoop filter. (Count)
system.membus.snoop_filter.hitSingleSnoops            0                       # Number of snoops hitting in the snoop filter with a single holder of the requested data. (Count)
system.membus.snoop_filter.hitMultiSnoops            0                       # Number of snoops hitting in the snoop filter with multiple (>1) holders of the requested data. (Count)
system.pc.bad_addr.power_state.pwrStateResidencyTicks::UNDEFINED 4123266193080                       # Cumulative time (in ticks) in various power states (Tick)
system.pc.com_1.power_state.pwrStateResidencyTicks::UNDEFINED 4123266193080                       # Cumulative time (in ticks) in various power states (Tick)
system.pc.default_bus.power_state.pwrStateResidencyTicks::UNDEFINED 4123266193080                       # Cumulative time (in ticks) in various power states (Tick)
system.pc.empty_isa.power_state.pwrStateResidencyTicks::UNDEFINED 4123266193080                       # Cumulative time (in ticks) in various power states (Tick)
system.pc.fake_com_2.power_state.pwrStateResidencyTicks::UNDEFINED 4123266193080                       # Cumulative time (in ticks) in various power states (Tick)
system.pc.fake_com_3.power_state.pwrStateResidencyTicks::UNDEFINED 4123266193080                       # Cumulative time (in ticks) in various power states (Tick)
system.pc.fake_com_4.power_state.pwrStateResidencyTicks::UNDEFINED 4123266193080                       # Cumulative time (in ticks) in various power states (Tick)
system.pc.fake_floppy.power_state.pwrStateResidencyTicks::UNDEFINED 4123266193080                       # Cumulative time (in ticks) in various power states (Tick)
system.pc.pci_host.power_state.pwrStateResidencyTicks::UNDEFINED 4123266193080                       # Cumulative time (in ticks) in various power states (Tick)
system.pc.south_bridge.cmos.power_state.pwrStateResidencyTicks::UNDEFINED 4123266193080                       # Cumulative time (in ticks) in various power states (Tick)
system.pc.south_bridge.dma1.power_state.pwrStateResidencyTicks::UNDEFINED 4123266193080                       # Cumulative time (in ticks) in various power states (Tick)
system.pc.south_bridge.ide.disks.IdeDisk.dmaReadFullPages            0                       # Number of full page size DMA reads (not PRD). (Count)
system.pc.south_bridge.ide.disks.IdeDisk.dmaReadBytes            0                       # Number of bytes transfered via DMA reads (not PRD). (Byte)
system.pc.south_bridge.ide.disks.IdeDisk.dmaReadTxs            0                       # Number of DMA read transactions (not PRD). (Count)
system.pc.south_bridge.ide.disks.IdeDisk.dmaWriteFullPages            0                       # Number of full page size DMA writes. (Count)
system.pc.south_bridge.ide.disks.IdeDisk.dmaWriteBytes            0                       # Number of bytes transfered via DMA writes. (Byte)
system.pc.south_bridge.ide.disks.IdeDisk.dmaWriteTxs            0                       # Number of DMA write transactions. (Count)
system.pc.south_bridge.ide.power_state.pwrStateResidencyTicks::UNDEFINED 4123266193080                       # Cumulative time (in ticks) in various power states (Tick)
system.pc.south_bridge.io_apic.power_state.pwrStateResidencyTicks::UNDEFINED 4123266193080                       # Cumulative time (in ticks) in various power states (Tick)
system.pc.south_bridge.keyboard.power_state.pwrStateResidencyTicks::UNDEFINED 4123266193080                       # Cumulative time (in ticks) in various power states (Tick)
system.pc.south_bridge.pic1.power_state.pwrStateResidencyTicks::UNDEFINED 4123266193080                       # Cumulative time (in ticks) in various power states (Tick)
system.pc.south_bridge.pic2.power_state.pwrStateResidencyTicks::UNDEFINED 4123266193080                       # Cumulative time (in ticks) in various power states (Tick)
system.pc.south_bridge.pit.power_state.pwrStateResidencyTicks::UNDEFINED 4123266193080                       # Cumulative time (in ticks) in various power states (Tick)
system.pc.south_bridge.speaker.power_state.pwrStateResidencyTicks::UNDEFINED 4123266193080                       # Cumulative time (in ticks) in various power states (Tick)
system.tol3bus.transDist::ReadReq                1476                       # Transaction distribution (Count)
system.tol3bus.transDist::ReadResp             752875                       # Transaction distribution (Count)
system.tol3bus.transDist::WriteReq              12041                       # Transaction distribution (Count)
system.tol3bus.transDist::WriteResp             12041                       # Transaction distribution (Count)
system.tol3bus.transDist::WritebackDirty       239516                       # Transaction distribution (Count)
system.tol3bus.transDist::WriteClean           406582                       # Transaction distribution (Count)
system.tol3bus.transDist::CleanEvict           666335                       # Transaction distribution (Count)
system.tol3bus.transDist::UpgradeReq            73745                       # Transaction distribution (Count)
system.tol3bus.transDist::UpgradeResp              39                       # Transaction distribution (Count)
system.tol3bus.transDist::ReadExReq            175675                       # Transaction distribution (Count)
system.tol3bus.transDist::ReadExResp           175675                       # Transaction distribution (Count)
system.tol3bus.transDist::ReadSharedReq        751399                       # Transaction distribution (Count)
system.tol3bus.transDist::CleanInvalidReq       574355                       # Transaction distribution (Count)
system.tol3bus.transDist::CleanInvalidResp       574355                       # Transaction distribution (Count)
system.tol3bus.pktCount_system.cpu.l2cache.mem_side_port::system.l3.cpu_side_port      4005360                       # Packet count per connected requestor and responder (Count)
system.tol3bus.pktSize_system.cpu.l2cache.mem_side_port::system.l3.cpu_side_port     93596129                       # Cumulative packet size per connected requestor and responder (Byte)
system.tol3bus.snoops                          484455                       # Total snoops (Count)
system.tol3bus.snoopTraffic                   7132224                       # Total snoop traffic (Byte)
system.tol3bus.snoopFanout::samples           1999440                       # Request fanout histogram (Count)
system.tol3bus.snoopFanout::mean             0.000563                       # Request fanout histogram (Count)
system.tol3bus.snoopFanout::stdev            0.023714                       # Request fanout histogram (Count)
system.tol3bus.snoopFanout::underflows              0      0.00%      0.00% # Request fanout histogram (Count)
system.tol3bus.snoopFanout::0                 1998315     99.94%     99.94% # Request fanout histogram (Count)
system.tol3bus.snoopFanout::1                    1125      0.06%    100.00% # Request fanout histogram (Count)
system.tol3bus.snoopFanout::overflows               0      0.00%    100.00% # Request fanout histogram (Count)
system.tol3bus.snoopFanout::min_value               0                       # Request fanout histogram (Count)
system.tol3bus.snoopFanout::max_value               1                       # Request fanout histogram (Count)
system.tol3bus.snoopFanout::total             1999440                       # Request fanout histogram (Count)
system.tol3bus.power_state.pwrStateResidencyTicks::UNDEFINED 4123266193080                       # Cumulative time (in ticks) in various power states (Tick)
system.tol3bus.reqLayer0.occupancy         1164841992                       # Layer occupancy (ticks) (Tick)
system.tol3bus.reqLayer0.utilization              0.0                       # Layer utilization (Ratio)
system.tol3bus.respLayer0.occupancy        1122902829                       # Layer occupancy (ticks) (Tick)
system.tol3bus.respLayer0.utilization             0.0                       # Layer utilization (Ratio)
system.tol3bus.snoop_filter.totRequests       2070276                       # Total number of requests made to the snoop filter. (Count)
system.tol3bus.snoop_filter.hitSingleRequests       992169                       # Number of requests hitting in the snoop filter with a single holder of the requested data. (Count)
system.tol3bus.snoop_filter.hitMultiRequests            0                       # Number of requests hitting in the snoop filter with multiple (>1) holders of the requested data. (Count)
system.tol3bus.snoop_filter.totSnoops            1125                       # Total number of snoops made to the snoop filter. (Count)
system.tol3bus.snoop_filter.hitSingleSnoops         1125                       # Number of snoops hitting in the snoop filter with a single holder of the requested data. (Count)
system.tol3bus.snoop_filter.hitMultiSnoops            0                       # Number of snoops hitting in the snoop filter with multiple (>1) holders of the requested data. (Count)
system.voltage_domain.voltage                       1                       # Voltage in Volts (Volt)
system.workload.inst.arm                            0                       # number of arm instructions executed (Count)
system.workload.inst.quiesce                        0                       # number of quiesce instructions executed (Count)

---------- End Simulation Statistics   ----------
