
---------- Begin Simulation Statistics ----------
simSeconds                                  38.694167                       # Number of seconds simulated (Second)
simTicks                                 38694166784982                       # Number of ticks simulated (Tick)
finalTick                                38694166784982                       # Number of ticks from beginning of simulation (restored from checkpoints and never reset) (Tick)
simFreq                                  1000000000000                       # The number of ticks per simulated second ((Tick/Second))
hostSeconds                                  32187.85                       # Real time elapsed on the host (Second)
hostTickRate                               1202135635                       # The number of ticks simulated per host second (ticks/s) ((Tick/Second))
hostMemory                                    5534724                       # Number of bytes of host memory used (Byte)
simInsts                                  27943851848                       # Number of instructions simulated (Count)
simOps                                    38941878836                       # Number of ops (including micro ops) simulated (Count)
hostInstRate                                   868149                       # Simulator instruction rate (inst/s) ((Count/Second))
hostOpRate                                    1209831                       # Simulator op (including micro ops) rate (op/s) ((Count/Second))
system.apicbridge.power_state.pwrStateResidencyTicks::UNDEFINED 38694166784982                       # Cumulative time (in ticks) in various power states (Tick)
system.bridge.power_state.pwrStateResidencyTicks::UNDEFINED 38694166784982                       # Cumulative time (in ticks) in various power states (Tick)
system.clk_domain.clock                          1000                       # Clock period in ticks (Tick)
system.cpu.numCycles                     116198699054                       # Number of cpu cycles simulated (Cycle)
system.cpu.numUsrCycles                             0                       # Number of user mode cpu cycles simulated (Cycle)
system.cpu.numWorkItemsStarted                      0                       # Number of work items this cpu started (Count)
system.cpu.numWorkItemsCompleted                    0                       # Number of work items this cpu completed (Count)
system.cpu.dcache.demandHits::cpu.data    18305995534                       # number of demand (read+write) hits (Count)
system.cpu.dcache.demandHits::total       18305995534                       # number of demand (read+write) hits (Count)
system.cpu.dcache.overallHits::cpu.data   18305995534                       # number of overall hits (Count)
system.cpu.dcache.overallHits::total      18305995534                       # number of overall hits (Count)
system.cpu.dcache.demandMisses::cpu.data    530995961                       # number of demand (read+write) misses (Count)
system.cpu.dcache.demandMisses::total       530995961                       # number of demand (read+write) misses (Count)
system.cpu.dcache.overallMisses::cpu.data    530995961                       # number of overall misses (Count)
system.cpu.dcache.overallMisses::total      530995961                       # number of overall misses (Count)
system.cpu.dcache.demandMissLatency::cpu.data 2735514150597                       # number of demand (read+write) miss ticks (Tick)
system.cpu.dcache.demandMissLatency::total 2735514150597                       # number of demand (read+write) miss ticks (Tick)
system.cpu.dcache.overallMissLatency::cpu.data 2735514150597                       # number of overall miss ticks (Tick)
system.cpu.dcache.overallMissLatency::total 2735514150597                       # number of overall miss ticks (Tick)
system.cpu.dcache.demandAccesses::cpu.data  18836991495                       # number of demand (read+write) accesses (Count)
system.cpu.dcache.demandAccesses::total   18836991495                       # number of demand (read+write) accesses (Count)
system.cpu.dcache.overallAccesses::cpu.data  18836991495                       # number of overall (read+write) accesses (Count)
system.cpu.dcache.overallAccesses::total  18836991495                       # number of overall (read+write) accesses (Count)
system.cpu.dcache.demandMissRate::cpu.data     0.028189                       # miss rate for demand accesses (Ratio)
system.cpu.dcache.demandMissRate::total      0.028189                       # miss rate for demand accesses (Ratio)
system.cpu.dcache.overallMissRate::cpu.data     0.028189                       # miss rate for overall accesses (Ratio)
system.cpu.dcache.overallMissRate::total     0.028189                       # miss rate for overall accesses (Ratio)
system.cpu.dcache.demandAvgMissLatency::cpu.data  5151.666588                       # average overall miss latency ((Cycle/Count))
system.cpu.dcache.demandAvgMissLatency::total  5151.666588                       # average overall miss latency ((Cycle/Count))
system.cpu.dcache.overallAvgMissLatency::cpu.data  5151.666588                       # average overall miss latency ((Cycle/Count))
system.cpu.dcache.overallAvgMissLatency::total  5151.666588                       # average overall miss latency ((Cycle/Count))
system.cpu.dcache.blockedCycles::no_mshrs            0                       # number of cycles access was blocked (Cycle)
system.cpu.dcache.blockedCycles::no_targets            0                       # number of cycles access was blocked (Cycle)
system.cpu.dcache.blockedCauses::no_mshrs            0                       # number of times access was blocked (Count)
system.cpu.dcache.blockedCauses::no_targets            0                       # number of times access was blocked (Count)
system.cpu.dcache.avgBlocked::no_mshrs            nan                       # average number of cycles each access was blocked ((Cycle/Count))
system.cpu.dcache.avgBlocked::no_targets          nan                       # average number of cycles each access was blocked ((Cycle/Count))
system.cpu.dcache.writebacks::writebacks      4781714                       # number of writebacks (Count)
system.cpu.dcache.writebacks::total           4781714                       # number of writebacks (Count)
system.cpu.dcache.demandMshrMisses::cpu.data    530995961                       # number of demand (read+write) MSHR misses (Count)
system.cpu.dcache.demandMshrMisses::total    530995961                       # number of demand (read+write) MSHR misses (Count)
system.cpu.dcache.overallMshrMisses::cpu.data    530995961                       # number of overall MSHR misses (Count)
system.cpu.dcache.overallMshrMisses::total    530995961                       # number of overall MSHR misses (Count)
system.cpu.dcache.overallMshrUncacheable::cpu.data        30962                       # number of overall MSHR uncacheable misses (Count)
system.cpu.dcache.overallMshrUncacheable::total        30962                       # number of overall MSHR uncacheable misses (Count)
system.cpu.dcache.demandMshrMissLatency::cpu.data 2381870840571                       # number of demand (read+write) MSHR miss ticks (Tick)
system.cpu.dcache.demandMshrMissLatency::total 2381870840571                       # number of demand (read+write) MSHR miss ticks (Tick)
system.cpu.dcache.overallMshrMissLatency::cpu.data 2381870840571                       # number of overall MSHR miss ticks (Tick)
system.cpu.dcache.overallMshrMissLatency::total 2381870840571                       # number of overall MSHR miss ticks (Tick)
system.cpu.dcache.overallMshrUncacheableLatency::cpu.data    175853637                       # number of overall MSHR uncacheable ticks (Tick)
system.cpu.dcache.overallMshrUncacheableLatency::total    175853637                       # number of overall MSHR uncacheable ticks (Tick)
system.cpu.dcache.demandMshrMissRate::cpu.data     0.028189                       # mshr miss ratio for demand accesses (Ratio)
system.cpu.dcache.demandMshrMissRate::total     0.028189                       # mshr miss ratio for demand accesses (Ratio)
system.cpu.dcache.overallMshrMissRate::cpu.data     0.028189                       # mshr miss ratio for overall accesses (Ratio)
system.cpu.dcache.overallMshrMissRate::total     0.028189                       # mshr miss ratio for overall accesses (Ratio)
system.cpu.dcache.demandAvgMshrMissLatency::cpu.data  4485.666588                       # average overall mshr miss latency ((Cycle/Count))
system.cpu.dcache.demandAvgMshrMissLatency::total  4485.666588                       # average overall mshr miss latency ((Cycle/Count))
system.cpu.dcache.overallAvgMshrMissLatency::cpu.data  4485.666588                       # average overall mshr miss latency ((Cycle/Count))
system.cpu.dcache.overallAvgMshrMissLatency::total  4485.666588                       # average overall mshr miss latency ((Cycle/Count))
system.cpu.dcache.overallAvgMshrUncacheableLatency::cpu.data  5679.660132                       # average overall mshr uncacheable latency ((Cycle/Count))
system.cpu.dcache.overallAvgMshrUncacheableLatency::total  5679.660132                       # average overall mshr uncacheable latency ((Cycle/Count))
system.cpu.dcache.replacements              529791155                       # number of replacements (Count)
system.cpu.dcache.CleanInvalidReq.missLatency::cpu.data  26047851408                       # number of CleanInvalidReq miss ticks (Tick)
system.cpu.dcache.CleanInvalidReq.missLatency::total  26047851408                       # number of CleanInvalidReq miss ticks (Tick)
system.cpu.dcache.CleanInvalidReq.avgMissLatency::cpu.data          inf                       # average CleanInvalidReq miss latency ((Tick/Count))
system.cpu.dcache.CleanInvalidReq.avgMissLatency::total          inf                       # average CleanInvalidReq miss latency ((Tick/Count))
system.cpu.dcache.CleanInvalidReq.mshrMisses::cpu.data      1284822                       # number of CleanInvalidReq MSHR misses (Count)
system.cpu.dcache.CleanInvalidReq.mshrMisses::total      1284822                       # number of CleanInvalidReq MSHR misses (Count)
system.cpu.dcache.CleanInvalidReq.mshrMissLatency::cpu.data  31930886817                       # number of CleanInvalidReq MSHR miss ticks (Tick)
system.cpu.dcache.CleanInvalidReq.mshrMissLatency::total  31930886817                       # number of CleanInvalidReq MSHR miss ticks (Tick)
system.cpu.dcache.CleanInvalidReq.mshrMissRate::cpu.data          inf                       # mshr miss rate for CleanInvalidReq accesses (Ratio)
system.cpu.dcache.CleanInvalidReq.mshrMissRate::total          inf                       # mshr miss rate for CleanInvalidReq accesses (Ratio)
system.cpu.dcache.CleanInvalidReq.avgMshrMissLatency::cpu.data 24852.381744                       # average CleanInvalidReq mshr miss latency ((Tick/Count))
system.cpu.dcache.CleanInvalidReq.avgMshrMissLatency::total 24852.381744                       # average CleanInvalidReq mshr miss latency ((Tick/Count))
system.cpu.dcache.ReadReq.hits::cpu.data  13284826973                       # number of ReadReq hits (Count)
system.cpu.dcache.ReadReq.hits::total     13284826973                       # number of ReadReq hits (Count)
system.cpu.dcache.ReadReq.misses::cpu.data    529801907                       # number of ReadReq misses (Count)
system.cpu.dcache.ReadReq.misses::total     529801907                       # number of ReadReq misses (Count)
system.cpu.dcache.ReadReq.missLatency::cpu.data 2667887896212                       # number of ReadReq miss ticks (Tick)
system.cpu.dcache.ReadReq.missLatency::total 2667887896212                       # number of ReadReq miss ticks (Tick)
system.cpu.dcache.ReadReq.accesses::cpu.data  13814628880                       # number of ReadReq accesses(hits+misses) (Count)
system.cpu.dcache.ReadReq.accesses::total  13814628880                       # number of ReadReq accesses(hits+misses) (Count)
system.cpu.dcache.ReadReq.missRate::cpu.data     0.038351                       # miss rate for ReadReq accesses (Ratio)
system.cpu.dcache.ReadReq.missRate::total     0.038351                       # miss rate for ReadReq accesses (Ratio)
system.cpu.dcache.ReadReq.avgMissLatency::cpu.data  5035.632868                       # average ReadReq miss latency ((Tick/Count))
system.cpu.dcache.ReadReq.avgMissLatency::total  5035.632868                       # average ReadReq miss latency ((Tick/Count))
system.cpu.dcache.ReadReq.mshrMisses::cpu.data    529801907                       # number of ReadReq MSHR misses (Count)
system.cpu.dcache.ReadReq.mshrMisses::total    529801907                       # number of ReadReq MSHR misses (Count)
system.cpu.dcache.ReadReq.mshrUncacheable::cpu.data          765                       # number of ReadReq MSHR uncacheable (Count)
system.cpu.dcache.ReadReq.mshrUncacheable::total          765                       # number of ReadReq MSHR uncacheable (Count)
system.cpu.dcache.ReadReq.mshrMissLatency::cpu.data 2315039826150                       # number of ReadReq MSHR miss ticks (Tick)
system.cpu.dcache.ReadReq.mshrMissLatency::total 2315039826150                       # number of ReadReq MSHR miss ticks (Tick)
system.cpu.dcache.ReadReq.mshrUncacheableLatency::cpu.data    175853637                       # number of ReadReq MSHR uncacheable ticks (Tick)
system.cpu.dcache.ReadReq.mshrUncacheableLatency::total    175853637                       # number of ReadReq MSHR uncacheable ticks (Tick)
system.cpu.dcache.ReadReq.mshrMissRate::cpu.data     0.038351                       # mshr miss rate for ReadReq accesses (Ratio)
system.cpu.dcache.ReadReq.mshrMissRate::total     0.038351                       # mshr miss rate for ReadReq accesses (Ratio)
system.cpu.dcache.ReadReq.avgMshrMissLatency::cpu.data  4369.632868                       # average ReadReq mshr miss latency ((Tick/Count))
system.cpu.dcache.ReadReq.avgMshrMissLatency::total  4369.632868                       # average ReadReq mshr miss latency ((Tick/Count))
system.cpu.dcache.ReadReq.avgMshrUncacheableLatency::cpu.data 229874.035294                       # average ReadReq mshr uncacheable latency ((Tick/Count))
system.cpu.dcache.ReadReq.avgMshrUncacheableLatency::total 229874.035294                       # average ReadReq mshr uncacheable latency ((Tick/Count))
system.cpu.dcache.WriteReq.hits::cpu.data   5021168561                       # number of WriteReq hits (Count)
system.cpu.dcache.WriteReq.hits::total     5021168561                       # number of WriteReq hits (Count)
system.cpu.dcache.WriteReq.misses::cpu.data      1194054                       # number of WriteReq misses (Count)
system.cpu.dcache.WriteReq.misses::total      1194054                       # number of WriteReq misses (Count)
system.cpu.dcache.WriteReq.missLatency::cpu.data  67626254385                       # number of WriteReq miss ticks (Tick)
system.cpu.dcache.WriteReq.missLatency::total  67626254385                       # number of WriteReq miss ticks (Tick)
system.cpu.dcache.WriteReq.accesses::cpu.data   5022362615                       # number of WriteReq accesses(hits+misses) (Count)
system.cpu.dcache.WriteReq.accesses::total   5022362615                       # number of WriteReq accesses(hits+misses) (Count)
system.cpu.dcache.WriteReq.missRate::cpu.data     0.000238                       # miss rate for WriteReq accesses (Ratio)
system.cpu.dcache.WriteReq.missRate::total     0.000238                       # miss rate for WriteReq accesses (Ratio)
system.cpu.dcache.WriteReq.avgMissLatency::cpu.data 56635.842588                       # average WriteReq miss latency ((Tick/Count))
system.cpu.dcache.WriteReq.avgMissLatency::total 56635.842588                       # average WriteReq miss latency ((Tick/Count))
system.cpu.dcache.WriteReq.mshrMisses::cpu.data      1194054                       # number of WriteReq MSHR misses (Count)
system.cpu.dcache.WriteReq.mshrMisses::total      1194054                       # number of WriteReq MSHR misses (Count)
system.cpu.dcache.WriteReq.mshrUncacheable::cpu.data        30197                       # number of WriteReq MSHR uncacheable (Count)
system.cpu.dcache.WriteReq.mshrUncacheable::total        30197                       # number of WriteReq MSHR uncacheable (Count)
system.cpu.dcache.WriteReq.mshrMissLatency::cpu.data  66831014421                       # number of WriteReq MSHR miss ticks (Tick)
system.cpu.dcache.WriteReq.mshrMissLatency::total  66831014421                       # number of WriteReq MSHR miss ticks (Tick)
system.cpu.dcache.WriteReq.mshrMissRate::cpu.data     0.000238                       # mshr miss rate for WriteReq accesses (Ratio)
system.cpu.dcache.WriteReq.mshrMissRate::total     0.000238                       # mshr miss rate for WriteReq accesses (Ratio)
system.cpu.dcache.WriteReq.avgMshrMissLatency::cpu.data 55969.842588                       # average WriteReq mshr miss latency ((Tick/Count))
system.cpu.dcache.WriteReq.avgMshrMissLatency::total 55969.842588                       # average WriteReq mshr miss latency ((Tick/Count))
system.cpu.dcache.power_state.pwrStateResidencyTicks::UNDEFINED 38694166784982                       # Cumulative time (in ticks) in various power states (Tick)
system.cpu.dcache.tags.tagsInUse           511.724321                       # Average ticks per tags in use ((Tick/Count))
system.cpu.dcache.tags.totalRefs          18837973886                       # Total number of references to valid blocks. (Count)
system.cpu.dcache.tags.sampledRefs          530995078                       # Sample count of references to valid blocks. (Count)
system.cpu.dcache.tags.avgRefs              35.476739                       # Average number of references to valid blocks. ((Count/Count))
system.cpu.dcache.tags.warmupTick              449883                       # The tick when the warmup percentage was hit. (Tick)
system.cpu.dcache.tags.occupancies::cpu.data   511.724321                       # Average occupied blocks per tick, per requestor ((Count/Tick))
system.cpu.dcache.tags.avgOccs::cpu.data     0.999462                       # Average percentage of cache occupancy ((Ratio/Tick))
system.cpu.dcache.tags.avgOccs::total        0.999462                       # Average percentage of cache occupancy ((Ratio/Tick))
system.cpu.dcache.tags.occupanciesTaskId::1024          512                       # Occupied blocks per task id (Count)
system.cpu.dcache.tags.ageTaskId_1024::1            7                       # Occupied blocks per task id, per block age (Count)
system.cpu.dcache.tags.ageTaskId_1024::2          499                       # Occupied blocks per task id, per block age (Count)
system.cpu.dcache.tags.ageTaskId_1024::4            6                       # Occupied blocks per task id, per block age (Count)
system.cpu.dcache.tags.ratioOccsTaskId::1024            1                       # Ratio of occupied blocks and all blocks, per task id (Ratio)
system.cpu.dcache.tags.tagAccesses       151237205614                       # Number of tag accesses (Count)
system.cpu.dcache.tags.dataAccesses      151237205614                       # Number of data accesses (Count)
system.cpu.dcache.tags.power_state.pwrStateResidencyTicks::UNDEFINED 38694166784982                       # Cumulative time (in ticks) in various power states (Tick)
system.cpu.dtb_walker_cache.demandHits::cpu.mmu.dtb.walker      1749403                       # number of demand (read+write) hits (Count)
system.cpu.dtb_walker_cache.demandHits::total      1749403                       # number of demand (read+write) hits (Count)
system.cpu.dtb_walker_cache.overallHits::cpu.mmu.dtb.walker      1749403                       # number of overall hits (Count)
system.cpu.dtb_walker_cache.overallHits::total      1749403                       # number of overall hits (Count)
system.cpu.dtb_walker_cache.demandMisses::cpu.mmu.dtb.walker       484240                       # number of demand (read+write) misses (Count)
system.cpu.dtb_walker_cache.demandMisses::total       484240                       # number of demand (read+write) misses (Count)
system.cpu.dtb_walker_cache.overallMisses::cpu.mmu.dtb.walker       484240                       # number of overall misses (Count)
system.cpu.dtb_walker_cache.overallMisses::total       484240                       # number of overall misses (Count)
system.cpu.dtb_walker_cache.demandMissLatency::cpu.mmu.dtb.walker   1881290826                       # number of demand (read+write) miss ticks (Tick)
system.cpu.dtb_walker_cache.demandMissLatency::total   1881290826                       # number of demand (read+write) miss ticks (Tick)
system.cpu.dtb_walker_cache.overallMissLatency::cpu.mmu.dtb.walker   1881290826                       # number of overall miss ticks (Tick)
system.cpu.dtb_walker_cache.overallMissLatency::total   1881290826                       # number of overall miss ticks (Tick)
system.cpu.dtb_walker_cache.demandAccesses::cpu.mmu.dtb.walker      2233643                       # number of demand (read+write) accesses (Count)
system.cpu.dtb_walker_cache.demandAccesses::total      2233643                       # number of demand (read+write) accesses (Count)
system.cpu.dtb_walker_cache.overallAccesses::cpu.mmu.dtb.walker      2233643                       # number of overall (read+write) accesses (Count)
system.cpu.dtb_walker_cache.overallAccesses::total      2233643                       # number of overall (read+write) accesses (Count)
system.cpu.dtb_walker_cache.demandMissRate::cpu.mmu.dtb.walker     0.216794                       # miss rate for demand accesses (Ratio)
system.cpu.dtb_walker_cache.demandMissRate::total     0.216794                       # miss rate for demand accesses (Ratio)
system.cpu.dtb_walker_cache.overallMissRate::cpu.mmu.dtb.walker     0.216794                       # miss rate for overall accesses (Ratio)
system.cpu.dtb_walker_cache.overallMissRate::total     0.216794                       # miss rate for overall accesses (Ratio)
system.cpu.dtb_walker_cache.demandAvgMissLatency::cpu.mmu.dtb.walker  3885.038051                       # average overall miss latency ((Cycle/Count))
system.cpu.dtb_walker_cache.demandAvgMissLatency::total  3885.038051                       # average overall miss latency ((Cycle/Count))
system.cpu.dtb_walker_cache.overallAvgMissLatency::cpu.mmu.dtb.walker  3885.038051                       # average overall miss latency ((Cycle/Count))
system.cpu.dtb_walker_cache.overallAvgMissLatency::total  3885.038051                       # average overall miss latency ((Cycle/Count))
system.cpu.dtb_walker_cache.blockedCycles::no_mshrs            0                       # number of cycles access was blocked (Cycle)
system.cpu.dtb_walker_cache.blockedCycles::no_targets            0                       # number of cycles access was blocked (Cycle)
system.cpu.dtb_walker_cache.blockedCauses::no_mshrs            0                       # number of times access was blocked (Count)
system.cpu.dtb_walker_cache.blockedCauses::no_targets            0                       # number of times access was blocked (Count)
system.cpu.dtb_walker_cache.avgBlocked::no_mshrs          nan                       # average number of cycles each access was blocked ((Cycle/Count))
system.cpu.dtb_walker_cache.avgBlocked::no_targets          nan                       # average number of cycles each access was blocked ((Cycle/Count))
system.cpu.dtb_walker_cache.writebacks::writebacks        30692                       # number of writebacks (Count)
system.cpu.dtb_walker_cache.writebacks::total        30692                       # number of writebacks (Count)
system.cpu.dtb_walker_cache.demandMshrMisses::cpu.mmu.dtb.walker       484240                       # number of demand (read+write) MSHR misses (Count)
system.cpu.dtb_walker_cache.demandMshrMisses::total       484240                       # number of demand (read+write) MSHR misses (Count)
system.cpu.dtb_walker_cache.overallMshrMisses::cpu.mmu.dtb.walker       484240                       # number of overall MSHR misses (Count)
system.cpu.dtb_walker_cache.overallMshrMisses::total       484240                       # number of overall MSHR misses (Count)
system.cpu.dtb_walker_cache.demandMshrMissLatency::cpu.mmu.dtb.walker   1558786986                       # number of demand (read+write) MSHR miss ticks (Tick)
system.cpu.dtb_walker_cache.demandMshrMissLatency::total   1558786986                       # number of demand (read+write) MSHR miss ticks (Tick)
system.cpu.dtb_walker_cache.overallMshrMissLatency::cpu.mmu.dtb.walker   1558786986                       # number of overall MSHR miss ticks (Tick)
system.cpu.dtb_walker_cache.overallMshrMissLatency::total   1558786986                       # number of overall MSHR miss ticks (Tick)
system.cpu.dtb_walker_cache.demandMshrMissRate::cpu.mmu.dtb.walker     0.216794                       # mshr miss ratio for demand accesses (Ratio)
system.cpu.dtb_walker_cache.demandMshrMissRate::total     0.216794                       # mshr miss ratio for demand accesses (Ratio)
system.cpu.dtb_walker_cache.overallMshrMissRate::cpu.mmu.dtb.walker     0.216794                       # mshr miss ratio for overall accesses (Ratio)
system.cpu.dtb_walker_cache.overallMshrMissRate::total     0.216794                       # mshr miss ratio for overall accesses (Ratio)
system.cpu.dtb_walker_cache.demandAvgMshrMissLatency::cpu.mmu.dtb.walker  3219.038051                       # average overall mshr miss latency ((Cycle/Count))
system.cpu.dtb_walker_cache.demandAvgMshrMissLatency::total  3219.038051                       # average overall mshr miss latency ((Cycle/Count))
system.cpu.dtb_walker_cache.overallAvgMshrMissLatency::cpu.mmu.dtb.walker  3219.038051                       # average overall mshr miss latency ((Cycle/Count))
system.cpu.dtb_walker_cache.overallAvgMshrMissLatency::total  3219.038051                       # average overall mshr miss latency ((Cycle/Count))
system.cpu.dtb_walker_cache.replacements        66571                       # number of replacements (Count)
system.cpu.dtb_walker_cache.ReadReq.hits::cpu.mmu.dtb.walker      1576809                       # number of ReadReq hits (Count)
system.cpu.dtb_walker_cache.ReadReq.hits::total      1576809                       # number of ReadReq hits (Count)
system.cpu.dtb_walker_cache.ReadReq.misses::cpu.mmu.dtb.walker       263207                       # number of ReadReq misses (Count)
system.cpu.dtb_walker_cache.ReadReq.misses::total       263207                       # number of ReadReq misses (Count)
system.cpu.dtb_walker_cache.ReadReq.missLatency::cpu.mmu.dtb.walker   1356398910                       # number of ReadReq miss ticks (Tick)
system.cpu.dtb_walker_cache.ReadReq.missLatency::total   1356398910                       # number of ReadReq miss ticks (Tick)
system.cpu.dtb_walker_cache.ReadReq.accesses::cpu.mmu.dtb.walker      1840016                       # number of ReadReq accesses(hits+misses) (Count)
system.cpu.dtb_walker_cache.ReadReq.accesses::total      1840016                       # number of ReadReq accesses(hits+misses) (Count)
system.cpu.dtb_walker_cache.ReadReq.missRate::cpu.mmu.dtb.walker     0.143046                       # miss rate for ReadReq accesses (Ratio)
system.cpu.dtb_walker_cache.ReadReq.missRate::total     0.143046                       # miss rate for ReadReq accesses (Ratio)
system.cpu.dtb_walker_cache.ReadReq.avgMissLatency::cpu.mmu.dtb.walker  5153.354242                       # average ReadReq miss latency ((Tick/Count))
system.cpu.dtb_walker_cache.ReadReq.avgMissLatency::total  5153.354242                       # average ReadReq miss latency ((Tick/Count))
system.cpu.dtb_walker_cache.ReadReq.mshrMisses::cpu.mmu.dtb.walker       263207                       # number of ReadReq MSHR misses (Count)
system.cpu.dtb_walker_cache.ReadReq.mshrMisses::total       263207                       # number of ReadReq MSHR misses (Count)
system.cpu.dtb_walker_cache.ReadReq.mshrMissLatency::cpu.mmu.dtb.walker   1181103048                       # number of ReadReq MSHR miss ticks (Tick)
system.cpu.dtb_walker_cache.ReadReq.mshrMissLatency::total   1181103048                       # number of ReadReq MSHR miss ticks (Tick)
system.cpu.dtb_walker_cache.ReadReq.mshrMissRate::cpu.mmu.dtb.walker     0.143046                       # mshr miss rate for ReadReq accesses (Ratio)
system.cpu.dtb_walker_cache.ReadReq.mshrMissRate::total     0.143046                       # mshr miss rate for ReadReq accesses (Ratio)
system.cpu.dtb_walker_cache.ReadReq.avgMshrMissLatency::cpu.mmu.dtb.walker  4487.354242                       # average ReadReq mshr miss latency ((Tick/Count))
system.cpu.dtb_walker_cache.ReadReq.avgMshrMissLatency::total  4487.354242                       # average ReadReq mshr miss latency ((Tick/Count))
system.cpu.dtb_walker_cache.WriteReq.hits::cpu.mmu.dtb.walker       172594                       # number of WriteReq hits (Count)
system.cpu.dtb_walker_cache.WriteReq.hits::total       172594                       # number of WriteReq hits (Count)
system.cpu.dtb_walker_cache.WriteReq.misses::cpu.mmu.dtb.walker       221033                       # number of WriteReq misses (Count)
system.cpu.dtb_walker_cache.WriteReq.misses::total       221033                       # number of WriteReq misses (Count)
system.cpu.dtb_walker_cache.WriteReq.missLatency::cpu.mmu.dtb.walker    524891916                       # number of WriteReq miss ticks (Tick)
system.cpu.dtb_walker_cache.WriteReq.missLatency::total    524891916                       # number of WriteReq miss ticks (Tick)
system.cpu.dtb_walker_cache.WriteReq.accesses::cpu.mmu.dtb.walker       393627                       # number of WriteReq accesses(hits+misses) (Count)
system.cpu.dtb_walker_cache.WriteReq.accesses::total       393627                       # number of WriteReq accesses(hits+misses) (Count)
system.cpu.dtb_walker_cache.WriteReq.missRate::cpu.mmu.dtb.walker     0.561529                       # miss rate for WriteReq accesses (Ratio)
system.cpu.dtb_walker_cache.WriteReq.missRate::total     0.561529                       # miss rate for WriteReq accesses (Ratio)
system.cpu.dtb_walker_cache.WriteReq.avgMissLatency::cpu.mmu.dtb.walker  2374.721946                       # average WriteReq miss latency ((Tick/Count))
system.cpu.dtb_walker_cache.WriteReq.avgMissLatency::total  2374.721946                       # average WriteReq miss latency ((Tick/Count))
system.cpu.dtb_walker_cache.WriteReq.mshrMisses::cpu.mmu.dtb.walker       221033                       # number of WriteReq MSHR misses (Count)
system.cpu.dtb_walker_cache.WriteReq.mshrMisses::total       221033                       # number of WriteReq MSHR misses (Count)
system.cpu.dtb_walker_cache.WriteReq.mshrMissLatency::cpu.mmu.dtb.walker    377683938                       # number of WriteReq MSHR miss ticks (Tick)
system.cpu.dtb_walker_cache.WriteReq.mshrMissLatency::total    377683938                       # number of WriteReq MSHR miss ticks (Tick)
system.cpu.dtb_walker_cache.WriteReq.mshrMissRate::cpu.mmu.dtb.walker     0.561529                       # mshr miss rate for WriteReq accesses (Ratio)
system.cpu.dtb_walker_cache.WriteReq.mshrMissRate::total     0.561529                       # mshr miss rate for WriteReq accesses (Ratio)
system.cpu.dtb_walker_cache.WriteReq.avgMshrMissLatency::cpu.mmu.dtb.walker  1708.721946                       # average WriteReq mshr miss latency ((Tick/Count))
system.cpu.dtb_walker_cache.WriteReq.avgMshrMissLatency::total  1708.721946                       # average WriteReq mshr miss latency ((Tick/Count))
system.cpu.dtb_walker_cache.power_state.pwrStateResidencyTicks::UNDEFINED 38694166784982                       # Cumulative time (in ticks) in various power states (Tick)
system.cpu.dtb_walker_cache.tags.tagsInUse    15.361435                       # Average ticks per tags in use ((Tick/Count))
system.cpu.dtb_walker_cache.tags.totalRefs      2233643                       # Total number of references to valid blocks. (Count)
system.cpu.dtb_walker_cache.tags.sampledRefs       263207                       # Sample count of references to valid blocks. (Count)
system.cpu.dtb_walker_cache.tags.avgRefs     8.486260                       # Average number of references to valid blocks. ((Count/Count))
system.cpu.dtb_walker_cache.tags.warmupTick       367965                       # The tick when the warmup percentage was hit. (Tick)
system.cpu.dtb_walker_cache.tags.occupancies::cpu.mmu.dtb.walker    15.361435                       # Average occupied blocks per tick, per requestor ((Count/Tick))
system.cpu.dtb_walker_cache.tags.avgOccs::cpu.mmu.dtb.walker     0.960090                       # Average percentage of cache occupancy ((Ratio/Tick))
system.cpu.dtb_walker_cache.tags.avgOccs::total     0.960090                       # Average percentage of cache occupancy ((Ratio/Tick))
system.cpu.dtb_walker_cache.tags.occupanciesTaskId::1024            4                       # Occupied blocks per task id (Count)
system.cpu.dtb_walker_cache.tags.ageTaskId_1024::1            2                       # Occupied blocks per task id, per block age (Count)
system.cpu.dtb_walker_cache.tags.ageTaskId_1024::4            2                       # Occupied blocks per task id, per block age (Count)
system.cpu.dtb_walker_cache.tags.ratioOccsTaskId::1024     0.250000                       # Ratio of occupied blocks and all blocks, per task id (Ratio)
system.cpu.dtb_walker_cache.tags.tagAccesses      4730493                       # Number of tag accesses (Count)
system.cpu.dtb_walker_cache.tags.dataAccesses      4730493                       # Number of data accesses (Count)
system.cpu.dtb_walker_cache.tags.power_state.pwrStateResidencyTicks::UNDEFINED 38694166784982                       # Cumulative time (in ticks) in various power states (Tick)
system.cpu.exec_context.thread_0.numInsts  27943851848                       # Number of instructions committed (Count)
system.cpu.exec_context.thread_0.numUsrInsts            0                       # Number of user space instructions committed (Count)
system.cpu.exec_context.thread_0.numOps   38941878836                       # Number of ops (including micro ops) committed (Count)
system.cpu.exec_context.thread_0.numIntAluAccesses  38908667898                       # Number of integer alu accesses (Count)
system.cpu.exec_context.thread_0.numFpAluAccesses            0                       # Number of float alu accesses (Count)
system.cpu.exec_context.thread_0.numVecAluAccesses            0                       # Number of vector alu accesses (Count)
system.cpu.exec_context.thread_0.numCallsReturns    316990427                       # Number of times a function call or return occured (Count)
system.cpu.exec_context.thread_0.numCondCtrlInsts   2946221190                       # Number of instructions that are conditional controls (Count)
system.cpu.exec_context.thread_0.numIntInsts  38908667898                       # Number of integer instructions (Count)
system.cpu.exec_context.thread_0.numFpInsts            0                       # Number of float instructions (Count)
system.cpu.exec_context.thread_0.numVecInsts            0                       # Number of vector instructions (Count)
system.cpu.exec_context.thread_0.numIntRegReads  68597254063                       # Number of times the integer registers were read (Count)
system.cpu.exec_context.thread_0.numIntRegWrites  30601790643                       # Number of times the integer registers were written (Count)
system.cpu.exec_context.thread_0.numFpRegReads            0                       # Number of times the floating registers were read (Count)
system.cpu.exec_context.thread_0.numFpRegWrites            0                       # Number of times the floating registers were written (Count)
system.cpu.exec_context.thread_0.numVecRegReads            0                       # Number of times the vector registers were read (Count)
system.cpu.exec_context.thread_0.numVecRegWrites            0                       # Number of times the vector registers were written (Count)
system.cpu.exec_context.thread_0.numVecPredRegReads            0                       # Number of times the predicate registers were read (Count)
system.cpu.exec_context.thread_0.numVecPredRegWrites            0                       # Number of times the predicate registers were written (Count)
system.cpu.exec_context.thread_0.numCCRegReads  17939211646                       # Number of times the CC registers were read (Count)
system.cpu.exec_context.thread_0.numCCRegWrites  12819690865                       # Number of times the CC registers were written (Count)
system.cpu.exec_context.thread_0.numMiscRegReads  25245868316                       # Number of times the Misc registers were read (Count)
system.cpu.exec_context.thread_0.numMiscRegWrites      3922295                       # Number of times the Misc registers were written (Count)
system.cpu.exec_context.thread_0.numMemRefs  18838307325                       # Number of memory refs (Count)
system.cpu.exec_context.thread_0.numLoadInsts  13814433038                       # Number of load instructions (Count)
system.cpu.exec_context.thread_0.numStoreInsts   5023874287                       # Number of store instructions (Count)
system.cpu.exec_context.thread_0.numIdleCycles            0                       # Number of idle cycles (Cycle)
system.cpu.exec_context.thread_0.numBusyCycles 116198699054                       # Number of busy cycles (Cycle)
system.cpu.exec_context.thread_0.notIdleFraction            1                       # Percentage of non-idle cycles (Ratio)
system.cpu.exec_context.thread_0.idleFraction            0                       # Percentage of idle cycles (Ratio)
system.cpu.exec_context.thread_0.numBranches   3282339587                       # Number of branches fetched (Count)
system.cpu.exec_context.thread_0.statExecutedInstType::No_OpClass     23028126      0.06%      0.06% # Class of executed instruction. (Count)
system.cpu.exec_context.thread_0.statExecutedInstType::IntAlu  20080397518     51.56%     51.62% # Class of executed instruction. (Count)
system.cpu.exec_context.thread_0.statExecutedInstType::IntMult       328119      0.00%     51.62% # Class of executed instruction. (Count)
system.cpu.exec_context.thread_0.statExecutedInstType::IntDiv        14392      0.00%     51.62% # Class of executed instruction. (Count)
system.cpu.exec_context.thread_0.statExecutedInstType::FloatAdd            0      0.00%     51.62% # Class of executed instruction. (Count)
system.cpu.exec_context.thread_0.statExecutedInstType::FloatCmp            0      0.00%     51.62% # Class of executed instruction. (Count)
system.cpu.exec_context.thread_0.statExecutedInstType::FloatCvt            0      0.00%     51.62% # Class of executed instruction. (Count)
system.cpu.exec_context.thread_0.statExecutedInstType::FloatMult            0      0.00%     51.62% # Class of executed instruction. (Count)
system.cpu.exec_context.thread_0.statExecutedInstType::FloatMultAcc            0      0.00%     51.62% # Class of executed instruction. (Count)
system.cpu.exec_context.thread_0.statExecutedInstType::FloatDiv            0      0.00%     51.62% # Class of executed instruction. (Count)
system.cpu.exec_context.thread_0.statExecutedInstType::FloatMisc            0      0.00%     51.62% # Class of executed instruction. (Count)
system.cpu.exec_context.thread_0.statExecutedInstType::FloatSqrt            0      0.00%     51.62% # Class of executed instruction. (Count)
system.cpu.exec_context.thread_0.statExecutedInstType::SimdAdd            0      0.00%     51.62% # Class of executed instruction. (Count)
system.cpu.exec_context.thread_0.statExecutedInstType::SimdAddAcc            0      0.00%     51.62% # Class of executed instruction. (Count)
system.cpu.exec_context.thread_0.statExecutedInstType::SimdAlu            0      0.00%     51.62% # Class of executed instruction. (Count)
system.cpu.exec_context.thread_0.statExecutedInstType::SimdCmp            0      0.00%     51.62% # Class of executed instruction. (Count)
system.cpu.exec_context.thread_0.statExecutedInstType::SimdCvt            0      0.00%     51.62% # Class of executed instruction. (Count)
system.cpu.exec_context.thread_0.statExecutedInstType::SimdMisc            0      0.00%     51.62% # Class of executed instruction. (Count)
system.cpu.exec_context.thread_0.statExecutedInstType::SimdMult            0      0.00%     51.62% # Class of executed instruction. (Count)
system.cpu.exec_context.thread_0.statExecutedInstType::SimdMultAcc            0      0.00%     51.62% # Class of executed instruction. (Count)
system.cpu.exec_context.thread_0.statExecutedInstType::SimdShift            0      0.00%     51.62% # Class of executed instruction. (Count)
system.cpu.exec_context.thread_0.statExecutedInstType::SimdShiftAcc            0      0.00%     51.62% # Class of executed instruction. (Count)
system.cpu.exec_context.thread_0.statExecutedInstType::SimdDiv            0      0.00%     51.62% # Class of executed instruction. (Count)
system.cpu.exec_context.thread_0.statExecutedInstType::SimdSqrt            0      0.00%     51.62% # Class of executed instruction. (Count)
system.cpu.exec_context.thread_0.statExecutedInstType::SimdFloatAdd            0      0.00%     51.62% # Class of executed instruction. (Count)
system.cpu.exec_context.thread_0.statExecutedInstType::SimdFloatAlu            0      0.00%     51.62% # Class of executed instruction. (Count)
system.cpu.exec_context.thread_0.statExecutedInstType::SimdFloatCmp            0      0.00%     51.62% # Class of executed instruction. (Count)
system.cpu.exec_context.thread_0.statExecutedInstType::SimdFloatCvt            0      0.00%     51.62% # Class of executed instruction. (Count)
system.cpu.exec_context.thread_0.statExecutedInstType::SimdFloatDiv            0      0.00%     51.62% # Class of executed instruction. (Count)
system.cpu.exec_context.thread_0.statExecutedInstType::SimdFloatMisc            0      0.00%     51.62% # Class of executed instruction. (Count)
system.cpu.exec_context.thread_0.statExecutedInstType::SimdFloatMult            0      0.00%     51.62% # Class of executed instruction. (Count)
system.cpu.exec_context.thread_0.statExecutedInstType::SimdFloatMultAcc            0      0.00%     51.62% # Class of executed instruction. (Count)
system.cpu.exec_context.thread_0.statExecutedInstType::SimdFloatSqrt            0      0.00%     51.62% # Class of executed instruction. (Count)
system.cpu.exec_context.thread_0.statExecutedInstType::SimdReduceAdd            0      0.00%     51.62% # Class of executed instruction. (Count)
system.cpu.exec_context.thread_0.statExecutedInstType::SimdReduceAlu            0      0.00%     51.62% # Class of executed instruction. (Count)
system.cpu.exec_context.thread_0.statExecutedInstType::SimdReduceCmp            0      0.00%     51.62% # Class of executed instruction. (Count)
system.cpu.exec_context.thread_0.statExecutedInstType::SimdFloatReduceAdd            0      0.00%     51.62% # Class of executed instruction. (Count)
system.cpu.exec_context.thread_0.statExecutedInstType::SimdFloatReduceCmp            0      0.00%     51.62% # Class of executed instruction. (Count)
system.cpu.exec_context.thread_0.statExecutedInstType::SimdAes            0      0.00%     51.62% # Class of executed instruction. (Count)
system.cpu.exec_context.thread_0.statExecutedInstType::SimdAesMix            0      0.00%     51.62% # Class of executed instruction. (Count)
system.cpu.exec_context.thread_0.statExecutedInstType::SimdSha1Hash            0      0.00%     51.62% # Class of executed instruction. (Count)
system.cpu.exec_context.thread_0.statExecutedInstType::SimdSha1Hash2            0      0.00%     51.62% # Class of executed instruction. (Count)
system.cpu.exec_context.thread_0.statExecutedInstType::SimdSha256Hash            0      0.00%     51.62% # Class of executed instruction. (Count)
system.cpu.exec_context.thread_0.statExecutedInstType::SimdSha256Hash2            0      0.00%     51.62% # Class of executed instruction. (Count)
system.cpu.exec_context.thread_0.statExecutedInstType::SimdShaSigma2            0      0.00%     51.62% # Class of executed instruction. (Count)
system.cpu.exec_context.thread_0.statExecutedInstType::SimdShaSigma3            0      0.00%     51.62% # Class of executed instruction. (Count)
system.cpu.exec_context.thread_0.statExecutedInstType::SimdPredAlu            0      0.00%     51.62% # Class of executed instruction. (Count)
system.cpu.exec_context.thread_0.statExecutedInstType::MemRead  13814433038     35.47%     87.10% # Class of executed instruction. (Count)
system.cpu.exec_context.thread_0.statExecutedInstType::MemWrite   5023874287     12.90%    100.00% # Class of executed instruction. (Count)
system.cpu.exec_context.thread_0.statExecutedInstType::FloatMemRead            0      0.00%    100.00% # Class of executed instruction. (Count)
system.cpu.exec_context.thread_0.statExecutedInstType::FloatMemWrite            0      0.00%    100.00% # Class of executed instruction. (Count)
system.cpu.exec_context.thread_0.statExecutedInstType::IprAccess            0      0.00%    100.00% # Class of executed instruction. (Count)
system.cpu.exec_context.thread_0.statExecutedInstType::InstPrefetch            0      0.00%    100.00% # Class of executed instruction. (Count)
system.cpu.exec_context.thread_0.statExecutedInstType::total  38942075480                       # Class of executed instruction. (Count)
system.cpu.icache.demandHits::cpu.inst    38136756058                       # number of demand (read+write) hits (Count)
system.cpu.icache.demandHits::total       38136756058                       # number of demand (read+write) hits (Count)
system.cpu.icache.overallHits::cpu.inst   38136756058                       # number of overall hits (Count)
system.cpu.icache.overallHits::total      38136756058                       # number of overall hits (Count)
system.cpu.icache.demandMisses::cpu.inst          668                       # number of demand (read+write) misses (Count)
system.cpu.icache.demandMisses::total             668                       # number of demand (read+write) misses (Count)
system.cpu.icache.overallMisses::cpu.inst          668                       # number of overall misses (Count)
system.cpu.icache.overallMisses::total            668                       # number of overall misses (Count)
system.cpu.icache.demandMissLatency::cpu.inst     47933685                       # number of demand (read+write) miss ticks (Tick)
system.cpu.icache.demandMissLatency::total     47933685                       # number of demand (read+write) miss ticks (Tick)
system.cpu.icache.overallMissLatency::cpu.inst     47933685                       # number of overall miss ticks (Tick)
system.cpu.icache.overallMissLatency::total     47933685                       # number of overall miss ticks (Tick)
system.cpu.icache.demandAccesses::cpu.inst  38136756726                       # number of demand (read+write) accesses (Count)
system.cpu.icache.demandAccesses::total   38136756726                       # number of demand (read+write) accesses (Count)
system.cpu.icache.overallAccesses::cpu.inst  38136756726                       # number of overall (read+write) accesses (Count)
system.cpu.icache.overallAccesses::total  38136756726                       # number of overall (read+write) accesses (Count)
system.cpu.icache.demandMissRate::cpu.inst     0.000000                       # miss rate for demand accesses (Ratio)
system.cpu.icache.demandMissRate::total      0.000000                       # miss rate for demand accesses (Ratio)
system.cpu.icache.overallMissRate::cpu.inst     0.000000                       # miss rate for overall accesses (Ratio)
system.cpu.icache.overallMissRate::total     0.000000                       # miss rate for overall accesses (Ratio)
system.cpu.icache.demandAvgMissLatency::cpu.inst 71757.013473                       # average overall miss latency ((Cycle/Count))
system.cpu.icache.demandAvgMissLatency::total 71757.013473                       # average overall miss latency ((Cycle/Count))
system.cpu.icache.overallAvgMissLatency::cpu.inst 71757.013473                       # average overall miss latency ((Cycle/Count))
system.cpu.icache.overallAvgMissLatency::total 71757.013473                       # average overall miss latency ((Cycle/Count))
system.cpu.icache.blockedCycles::no_mshrs            0                       # number of cycles access was blocked (Cycle)
system.cpu.icache.blockedCycles::no_targets            0                       # number of cycles access was blocked (Cycle)
system.cpu.icache.blockedCauses::no_mshrs            0                       # number of times access was blocked (Count)
system.cpu.icache.blockedCauses::no_targets            0                       # number of times access was blocked (Count)
system.cpu.icache.avgBlocked::no_mshrs            nan                       # average number of cycles each access was blocked ((Cycle/Count))
system.cpu.icache.avgBlocked::no_targets          nan                       # average number of cycles each access was blocked ((Cycle/Count))
system.cpu.icache.writebacks::writebacks          158                       # number of writebacks (Count)
system.cpu.icache.writebacks::total               158                       # number of writebacks (Count)
system.cpu.icache.demandMshrMisses::cpu.inst          668                       # number of demand (read+write) MSHR misses (Count)
system.cpu.icache.demandMshrMisses::total          668                       # number of demand (read+write) MSHR misses (Count)
system.cpu.icache.overallMshrMisses::cpu.inst          668                       # number of overall MSHR misses (Count)
system.cpu.icache.overallMshrMisses::total          668                       # number of overall MSHR misses (Count)
system.cpu.icache.demandMshrMissLatency::cpu.inst     47488797                       # number of demand (read+write) MSHR miss ticks (Tick)
system.cpu.icache.demandMshrMissLatency::total     47488797                       # number of demand (read+write) MSHR miss ticks (Tick)
system.cpu.icache.overallMshrMissLatency::cpu.inst     47488797                       # number of overall MSHR miss ticks (Tick)
system.cpu.icache.overallMshrMissLatency::total     47488797                       # number of overall MSHR miss ticks (Tick)
system.cpu.icache.demandMshrMissRate::cpu.inst     0.000000                       # mshr miss ratio for demand accesses (Ratio)
system.cpu.icache.demandMshrMissRate::total     0.000000                       # mshr miss ratio for demand accesses (Ratio)
system.cpu.icache.overallMshrMissRate::cpu.inst     0.000000                       # mshr miss ratio for overall accesses (Ratio)
system.cpu.icache.overallMshrMissRate::total     0.000000                       # mshr miss ratio for overall accesses (Ratio)
system.cpu.icache.demandAvgMshrMissLatency::cpu.inst 71091.013473                       # average overall mshr miss latency ((Cycle/Count))
system.cpu.icache.demandAvgMshrMissLatency::total 71091.013473                       # average overall mshr miss latency ((Cycle/Count))
system.cpu.icache.overallAvgMshrMissLatency::cpu.inst 71091.013473                       # average overall mshr miss latency ((Cycle/Count))
system.cpu.icache.overallAvgMshrMissLatency::total 71091.013473                       # average overall mshr miss latency ((Cycle/Count))
system.cpu.icache.replacements                    158                       # number of replacements (Count)
system.cpu.icache.ReadReq.hits::cpu.inst  38136756058                       # number of ReadReq hits (Count)
system.cpu.icache.ReadReq.hits::total     38136756058                       # number of ReadReq hits (Count)
system.cpu.icache.ReadReq.misses::cpu.inst          668                       # number of ReadReq misses (Count)
system.cpu.icache.ReadReq.misses::total           668                       # number of ReadReq misses (Count)
system.cpu.icache.ReadReq.missLatency::cpu.inst     47933685                       # number of ReadReq miss ticks (Tick)
system.cpu.icache.ReadReq.missLatency::total     47933685                       # number of ReadReq miss ticks (Tick)
system.cpu.icache.ReadReq.accesses::cpu.inst  38136756726                       # number of ReadReq accesses(hits+misses) (Count)
system.cpu.icache.ReadReq.accesses::total  38136756726                       # number of ReadReq accesses(hits+misses) (Count)
system.cpu.icache.ReadReq.missRate::cpu.inst     0.000000                       # miss rate for ReadReq accesses (Ratio)
system.cpu.icache.ReadReq.missRate::total     0.000000                       # miss rate for ReadReq accesses (Ratio)
system.cpu.icache.ReadReq.avgMissLatency::cpu.inst 71757.013473                       # average ReadReq miss latency ((Tick/Count))
system.cpu.icache.ReadReq.avgMissLatency::total 71757.013473                       # average ReadReq miss latency ((Tick/Count))
system.cpu.icache.ReadReq.mshrMisses::cpu.inst          668                       # number of ReadReq MSHR misses (Count)
system.cpu.icache.ReadReq.mshrMisses::total          668                       # number of ReadReq MSHR misses (Count)
system.cpu.icache.ReadReq.mshrMissLatency::cpu.inst     47488797                       # number of ReadReq MSHR miss ticks (Tick)
system.cpu.icache.ReadReq.mshrMissLatency::total     47488797                       # number of ReadReq MSHR miss ticks (Tick)
system.cpu.icache.ReadReq.mshrMissRate::cpu.inst     0.000000                       # mshr miss rate for ReadReq accesses (Ratio)
system.cpu.icache.ReadReq.mshrMissRate::total     0.000000                       # mshr miss rate for ReadReq accesses (Ratio)
system.cpu.icache.ReadReq.avgMshrMissLatency::cpu.inst 71091.013473                       # average ReadReq mshr miss latency ((Tick/Count))
system.cpu.icache.ReadReq.avgMshrMissLatency::total 71091.013473                       # average ReadReq mshr miss latency ((Tick/Count))
system.cpu.icache.power_state.pwrStateResidencyTicks::UNDEFINED 38694166784982                       # Cumulative time (in ticks) in various power states (Tick)
system.cpu.icache.tags.tagsInUse           489.569510                       # Average ticks per tags in use ((Tick/Count))
system.cpu.icache.tags.totalRefs          25251854838                       # Total number of references to valid blocks. (Count)
system.cpu.icache.tags.sampledRefs                668                       # Sample count of references to valid blocks. (Count)
system.cpu.icache.tags.avgRefs           37802177.901198                       # Average number of references to valid blocks. ((Count/Count))
system.cpu.icache.tags.warmupTick              298701                       # The tick when the warmup percentage was hit. (Tick)
system.cpu.icache.tags.occupancies::cpu.inst   489.569510                       # Average occupied blocks per tick, per requestor ((Count/Tick))
system.cpu.icache.tags.avgOccs::cpu.inst     0.956190                       # Average percentage of cache occupancy ((Ratio/Tick))
system.cpu.icache.tags.avgOccs::total        0.956190                       # Average percentage of cache occupancy ((Ratio/Tick))
system.cpu.icache.tags.occupanciesTaskId::1024          509                       # Occupied blocks per task id (Count)
system.cpu.icache.tags.ageTaskId_1024::1            4                       # Occupied blocks per task id, per block age (Count)
system.cpu.icache.tags.ageTaskId_1024::2           33                       # Occupied blocks per task id, per block age (Count)
system.cpu.icache.tags.ageTaskId_1024::4          472                       # Occupied blocks per task id, per block age (Count)
system.cpu.icache.tags.ratioOccsTaskId::1024     0.994141                       # Ratio of occupied blocks and all blocks, per task id (Ratio)
system.cpu.icache.tags.tagAccesses       305094054476                       # Number of tag accesses (Count)
system.cpu.icache.tags.dataAccesses      305094054476                       # Number of data accesses (Count)
system.cpu.icache.tags.power_state.pwrStateResidencyTicks::UNDEFINED 38694166784982                       # Cumulative time (in ticks) in various power states (Tick)
system.cpu.interrupts.clk_domain.clock           5328                       # Clock period in ticks (Tick)
system.cpu.itb_walker_cache.demandHits::cpu.mmu.itb.walker           10                       # number of demand (read+write) hits (Count)
system.cpu.itb_walker_cache.demandHits::total           10                       # number of demand (read+write) hits (Count)
system.cpu.itb_walker_cache.overallHits::cpu.mmu.itb.walker           10                       # number of overall hits (Count)
system.cpu.itb_walker_cache.overallHits::total           10                       # number of overall hits (Count)
system.cpu.itb_walker_cache.demandMisses::cpu.mmu.itb.walker           20                       # number of demand (read+write) misses (Count)
system.cpu.itb_walker_cache.demandMisses::total           20                       # number of demand (read+write) misses (Count)
system.cpu.itb_walker_cache.overallMisses::cpu.mmu.itb.walker           20                       # number of overall misses (Count)
system.cpu.itb_walker_cache.overallMisses::total           20                       # number of overall misses (Count)
system.cpu.itb_walker_cache.demandMissLatency::cpu.mmu.itb.walker       505161                       # number of demand (read+write) miss ticks (Tick)
system.cpu.itb_walker_cache.demandMissLatency::total       505161                       # number of demand (read+write) miss ticks (Tick)
system.cpu.itb_walker_cache.overallMissLatency::cpu.mmu.itb.walker       505161                       # number of overall miss ticks (Tick)
system.cpu.itb_walker_cache.overallMissLatency::total       505161                       # number of overall miss ticks (Tick)
system.cpu.itb_walker_cache.demandAccesses::cpu.mmu.itb.walker           30                       # number of demand (read+write) accesses (Count)
system.cpu.itb_walker_cache.demandAccesses::total           30                       # number of demand (read+write) accesses (Count)
system.cpu.itb_walker_cache.overallAccesses::cpu.mmu.itb.walker           30                       # number of overall (read+write) accesses (Count)
system.cpu.itb_walker_cache.overallAccesses::total           30                       # number of overall (read+write) accesses (Count)
system.cpu.itb_walker_cache.demandMissRate::cpu.mmu.itb.walker     0.666667                       # miss rate for demand accesses (Ratio)
system.cpu.itb_walker_cache.demandMissRate::total     0.666667                       # miss rate for demand accesses (Ratio)
system.cpu.itb_walker_cache.overallMissRate::cpu.mmu.itb.walker     0.666667                       # miss rate for overall accesses (Ratio)
system.cpu.itb_walker_cache.overallMissRate::total     0.666667                       # miss rate for overall accesses (Ratio)
system.cpu.itb_walker_cache.demandAvgMissLatency::cpu.mmu.itb.walker 25258.050000                       # average overall miss latency ((Cycle/Count))
system.cpu.itb_walker_cache.demandAvgMissLatency::total 25258.050000                       # average overall miss latency ((Cycle/Count))
system.cpu.itb_walker_cache.overallAvgMissLatency::cpu.mmu.itb.walker 25258.050000                       # average overall miss latency ((Cycle/Count))
system.cpu.itb_walker_cache.overallAvgMissLatency::total 25258.050000                       # average overall miss latency ((Cycle/Count))
system.cpu.itb_walker_cache.blockedCycles::no_mshrs            0                       # number of cycles access was blocked (Cycle)
system.cpu.itb_walker_cache.blockedCycles::no_targets            0                       # number of cycles access was blocked (Cycle)
system.cpu.itb_walker_cache.blockedCauses::no_mshrs            0                       # number of times access was blocked (Count)
system.cpu.itb_walker_cache.blockedCauses::no_targets            0                       # number of times access was blocked (Count)
system.cpu.itb_walker_cache.avgBlocked::no_mshrs          nan                       # average number of cycles each access was blocked ((Cycle/Count))
system.cpu.itb_walker_cache.avgBlocked::no_targets          nan                       # average number of cycles each access was blocked ((Cycle/Count))
system.cpu.itb_walker_cache.writebacks::writebacks            8                       # number of writebacks (Count)
system.cpu.itb_walker_cache.writebacks::total            8                       # number of writebacks (Count)
system.cpu.itb_walker_cache.demandMshrMisses::cpu.mmu.itb.walker           20                       # number of demand (read+write) MSHR misses (Count)
system.cpu.itb_walker_cache.demandMshrMisses::total           20                       # number of demand (read+write) MSHR misses (Count)
system.cpu.itb_walker_cache.overallMshrMisses::cpu.mmu.itb.walker           20                       # number of overall MSHR misses (Count)
system.cpu.itb_walker_cache.overallMshrMisses::total           20                       # number of overall MSHR misses (Count)
system.cpu.itb_walker_cache.demandMshrMissLatency::cpu.mmu.itb.walker       491841                       # number of demand (read+write) MSHR miss ticks (Tick)
system.cpu.itb_walker_cache.demandMshrMissLatency::total       491841                       # number of demand (read+write) MSHR miss ticks (Tick)
system.cpu.itb_walker_cache.overallMshrMissLatency::cpu.mmu.itb.walker       491841                       # number of overall MSHR miss ticks (Tick)
system.cpu.itb_walker_cache.overallMshrMissLatency::total       491841                       # number of overall MSHR miss ticks (Tick)
system.cpu.itb_walker_cache.demandMshrMissRate::cpu.mmu.itb.walker     0.666667                       # mshr miss ratio for demand accesses (Ratio)
system.cpu.itb_walker_cache.demandMshrMissRate::total     0.666667                       # mshr miss ratio for demand accesses (Ratio)
system.cpu.itb_walker_cache.overallMshrMissRate::cpu.mmu.itb.walker     0.666667                       # mshr miss ratio for overall accesses (Ratio)
system.cpu.itb_walker_cache.overallMshrMissRate::total     0.666667                       # mshr miss ratio for overall accesses (Ratio)
system.cpu.itb_walker_cache.demandAvgMshrMissLatency::cpu.mmu.itb.walker 24592.050000                       # average overall mshr miss latency ((Cycle/Count))
system.cpu.itb_walker_cache.demandAvgMshrMissLatency::total 24592.050000                       # average overall mshr miss latency ((Cycle/Count))
system.cpu.itb_walker_cache.overallAvgMshrMissLatency::cpu.mmu.itb.walker 24592.050000                       # average overall mshr miss latency ((Cycle/Count))
system.cpu.itb_walker_cache.overallAvgMshrMissLatency::total 24592.050000                       # average overall mshr miss latency ((Cycle/Count))
system.cpu.itb_walker_cache.replacements           12                       # number of replacements (Count)
system.cpu.itb_walker_cache.ReadReq.misses::cpu.mmu.itb.walker           20                       # number of ReadReq misses (Count)
system.cpu.itb_walker_cache.ReadReq.misses::total           20                       # number of ReadReq misses (Count)
system.cpu.itb_walker_cache.ReadReq.missLatency::cpu.mmu.itb.walker       505161                       # number of ReadReq miss ticks (Tick)
system.cpu.itb_walker_cache.ReadReq.missLatency::total       505161                       # number of ReadReq miss ticks (Tick)
system.cpu.itb_walker_cache.ReadReq.accesses::cpu.mmu.itb.walker           20                       # number of ReadReq accesses(hits+misses) (Count)
system.cpu.itb_walker_cache.ReadReq.accesses::total           20                       # number of ReadReq accesses(hits+misses) (Count)
system.cpu.itb_walker_cache.ReadReq.missRate::cpu.mmu.itb.walker            1                       # miss rate for ReadReq accesses (Ratio)
system.cpu.itb_walker_cache.ReadReq.missRate::total            1                       # miss rate for ReadReq accesses (Ratio)
system.cpu.itb_walker_cache.ReadReq.avgMissLatency::cpu.mmu.itb.walker 25258.050000                       # average ReadReq miss latency ((Tick/Count))
system.cpu.itb_walker_cache.ReadReq.avgMissLatency::total 25258.050000                       # average ReadReq miss latency ((Tick/Count))
system.cpu.itb_walker_cache.ReadReq.mshrMisses::cpu.mmu.itb.walker           20                       # number of ReadReq MSHR misses (Count)
system.cpu.itb_walker_cache.ReadReq.mshrMisses::total           20                       # number of ReadReq MSHR misses (Count)
system.cpu.itb_walker_cache.ReadReq.mshrMissLatency::cpu.mmu.itb.walker       491841                       # number of ReadReq MSHR miss ticks (Tick)
system.cpu.itb_walker_cache.ReadReq.mshrMissLatency::total       491841                       # number of ReadReq MSHR miss ticks (Tick)
system.cpu.itb_walker_cache.ReadReq.mshrMissRate::cpu.mmu.itb.walker            1                       # mshr miss rate for ReadReq accesses (Ratio)
system.cpu.itb_walker_cache.ReadReq.mshrMissRate::total            1                       # mshr miss rate for ReadReq accesses (Ratio)
system.cpu.itb_walker_cache.ReadReq.avgMshrMissLatency::cpu.mmu.itb.walker 24592.050000                       # average ReadReq mshr miss latency ((Tick/Count))
system.cpu.itb_walker_cache.ReadReq.avgMshrMissLatency::total 24592.050000                       # average ReadReq mshr miss latency ((Tick/Count))
system.cpu.itb_walker_cache.WriteReq.hits::cpu.mmu.itb.walker           10                       # number of WriteReq hits (Count)
system.cpu.itb_walker_cache.WriteReq.hits::total           10                       # number of WriteReq hits (Count)
system.cpu.itb_walker_cache.WriteReq.accesses::cpu.mmu.itb.walker           10                       # number of WriteReq accesses(hits+misses) (Count)
system.cpu.itb_walker_cache.WriteReq.accesses::total           10                       # number of WriteReq accesses(hits+misses) (Count)
system.cpu.itb_walker_cache.power_state.pwrStateResidencyTicks::UNDEFINED 38694166784982                       # Cumulative time (in ticks) in various power states (Tick)
system.cpu.itb_walker_cache.tags.tagsInUse     1.998822                       # Average ticks per tags in use ((Tick/Count))
system.cpu.itb_walker_cache.tags.totalRefs           30                       # Total number of references to valid blocks. (Count)
system.cpu.itb_walker_cache.tags.sampledRefs           20                       # Sample count of references to valid blocks. (Count)
system.cpu.itb_walker_cache.tags.avgRefs     1.500000                       # Average number of references to valid blocks. ((Count/Count))
system.cpu.itb_walker_cache.tags.warmupTick        84915                       # The tick when the warmup percentage was hit. (Tick)
system.cpu.itb_walker_cache.tags.occupancies::cpu.mmu.itb.walker     1.998822                       # Average occupied blocks per tick, per requestor ((Count/Tick))
system.cpu.itb_walker_cache.tags.avgOccs::cpu.mmu.itb.walker     0.124926                       # Average percentage of cache occupancy ((Ratio/Tick))
system.cpu.itb_walker_cache.tags.avgOccs::total     0.124926                       # Average percentage of cache occupancy ((Ratio/Tick))
system.cpu.itb_walker_cache.tags.occupanciesTaskId::1024            2                       # Occupied blocks per task id (Count)
system.cpu.itb_walker_cache.tags.ageTaskId_1024::2            2                       # Occupied blocks per task id, per block age (Count)
system.cpu.itb_walker_cache.tags.ratioOccsTaskId::1024     0.125000                       # Ratio of occupied blocks and all blocks, per task id (Ratio)
system.cpu.itb_walker_cache.tags.tagAccesses           80                       # Number of tag accesses (Count)
system.cpu.itb_walker_cache.tags.dataAccesses           80                       # Number of data accesses (Count)
system.cpu.itb_walker_cache.tags.power_state.pwrStateResidencyTicks::UNDEFINED 38694166784982                       # Cumulative time (in ticks) in various power states (Tick)
system.cpu.l2cache.demandHits::cpu.mmu.dtb.walker        33050                       # number of demand (read+write) hits (Count)
system.cpu.l2cache.demandHits::cpu.mmu.itb.walker            9                       # number of demand (read+write) hits (Count)
system.cpu.l2cache.demandHits::cpu.inst             2                       # number of demand (read+write) hits (Count)
system.cpu.l2cache.demandHits::cpu.data     527397925                       # number of demand (read+write) hits (Count)
system.cpu.l2cache.demandHits::total        527430986                       # number of demand (read+write) hits (Count)
system.cpu.l2cache.overallHits::cpu.mmu.dtb.walker        33050                       # number of overall hits (Count)
system.cpu.l2cache.overallHits::cpu.mmu.itb.walker            9                       # number of overall hits (Count)
system.cpu.l2cache.overallHits::cpu.inst            2                       # number of overall hits (Count)
system.cpu.l2cache.overallHits::cpu.data    527397925                       # number of overall hits (Count)
system.cpu.l2cache.overallHits::total       527430986                       # number of overall hits (Count)
system.cpu.l2cache.demandMisses::cpu.mmu.dtb.walker         9640                       # number of demand (read+write) misses (Count)
system.cpu.l2cache.demandMisses::cpu.mmu.itb.walker            7                       # number of demand (read+write) misses (Count)
system.cpu.l2cache.demandMisses::cpu.inst          666                       # number of demand (read+write) misses (Count)
system.cpu.l2cache.demandMisses::cpu.data      3374628                       # number of demand (read+write) misses (Count)
system.cpu.l2cache.demandMisses::total        3384941                       # number of demand (read+write) misses (Count)
system.cpu.l2cache.overallMisses::cpu.mmu.dtb.walker         9640                       # number of overall misses (Count)
system.cpu.l2cache.overallMisses::cpu.mmu.itb.walker            7                       # number of overall misses (Count)
system.cpu.l2cache.overallMisses::cpu.inst          666                       # number of overall misses (Count)
system.cpu.l2cache.overallMisses::cpu.data      3374628                       # number of overall misses (Count)
system.cpu.l2cache.overallMisses::total       3384941                       # number of overall misses (Count)
system.cpu.l2cache.demandMissLatency::cpu.mmu.dtb.walker    652793220                       # number of demand (read+write) miss ticks (Tick)
system.cpu.l2cache.demandMissLatency::cpu.mmu.itb.walker       436896                       # number of demand (read+write) miss ticks (Tick)
system.cpu.l2cache.demandMissLatency::cpu.inst     47036583                       # number of demand (read+write) miss ticks (Tick)
system.cpu.l2cache.demandMissLatency::cpu.data 271197468063                       # number of demand (read+write) miss ticks (Tick)
system.cpu.l2cache.demandMissLatency::total 271897734762                       # number of demand (read+write) miss ticks (Tick)
system.cpu.l2cache.overallMissLatency::cpu.mmu.dtb.walker    652793220                       # number of overall miss ticks (Tick)
system.cpu.l2cache.overallMissLatency::cpu.mmu.itb.walker       436896                       # number of overall miss ticks (Tick)
system.cpu.l2cache.overallMissLatency::cpu.inst     47036583                       # number of overall miss ticks (Tick)
system.cpu.l2cache.overallMissLatency::cpu.data 271197468063                       # number of overall miss ticks (Tick)
system.cpu.l2cache.overallMissLatency::total 271897734762                       # number of overall miss ticks (Tick)
system.cpu.l2cache.demandAccesses::cpu.mmu.dtb.walker        42690                       # number of demand (read+write) accesses (Count)
system.cpu.l2cache.demandAccesses::cpu.mmu.itb.walker           16                       # number of demand (read+write) accesses (Count)
system.cpu.l2cache.demandAccesses::cpu.inst          668                       # number of demand (read+write) accesses (Count)
system.cpu.l2cache.demandAccesses::cpu.data    530772553                       # number of demand (read+write) accesses (Count)
system.cpu.l2cache.demandAccesses::total    530815927                       # number of demand (read+write) accesses (Count)
system.cpu.l2cache.overallAccesses::cpu.mmu.dtb.walker        42690                       # number of overall (read+write) accesses (Count)
system.cpu.l2cache.overallAccesses::cpu.mmu.itb.walker           16                       # number of overall (read+write) accesses (Count)
system.cpu.l2cache.overallAccesses::cpu.inst          668                       # number of overall (read+write) accesses (Count)
system.cpu.l2cache.overallAccesses::cpu.data    530772553                       # number of overall (read+write) accesses (Count)
system.cpu.l2cache.overallAccesses::total    530815927                       # number of overall (read+write) accesses (Count)
system.cpu.l2cache.demandMissRate::cpu.mmu.dtb.walker     0.225814                       # miss rate for demand accesses (Ratio)
system.cpu.l2cache.demandMissRate::cpu.mmu.itb.walker     0.437500                       # miss rate for demand accesses (Ratio)
system.cpu.l2cache.demandMissRate::cpu.inst     0.997006                       # miss rate for demand accesses (Ratio)
system.cpu.l2cache.demandMissRate::cpu.data     0.006358                       # miss rate for demand accesses (Ratio)
system.cpu.l2cache.demandMissRate::total     0.006377                       # miss rate for demand accesses (Ratio)
system.cpu.l2cache.overallMissRate::cpu.mmu.dtb.walker     0.225814                       # miss rate for overall accesses (Ratio)
system.cpu.l2cache.overallMissRate::cpu.mmu.itb.walker     0.437500                       # miss rate for overall accesses (Ratio)
system.cpu.l2cache.overallMissRate::cpu.inst     0.997006                       # miss rate for overall accesses (Ratio)
system.cpu.l2cache.overallMissRate::cpu.data     0.006358                       # miss rate for overall accesses (Ratio)
system.cpu.l2cache.overallMissRate::total     0.006377                       # miss rate for overall accesses (Ratio)
system.cpu.l2cache.demandAvgMissLatency::cpu.mmu.dtb.walker 67717.139004                       # average overall miss latency ((Cycle/Count))
system.cpu.l2cache.demandAvgMissLatency::cpu.mmu.itb.walker 62413.714286                       # average overall miss latency ((Cycle/Count))
system.cpu.l2cache.demandAvgMissLatency::cpu.inst 70625.500000                       # average overall miss latency ((Cycle/Count))
system.cpu.l2cache.demandAvgMissLatency::cpu.data 80363.663214                       # average overall miss latency ((Cycle/Count))
system.cpu.l2cache.demandAvgMissLatency::total 80325.693937                       # average overall miss latency ((Cycle/Count))
system.cpu.l2cache.overallAvgMissLatency::cpu.mmu.dtb.walker 67717.139004                       # average overall miss latency ((Cycle/Count))
system.cpu.l2cache.overallAvgMissLatency::cpu.mmu.itb.walker 62413.714286                       # average overall miss latency ((Cycle/Count))
system.cpu.l2cache.overallAvgMissLatency::cpu.inst 70625.500000                       # average overall miss latency ((Cycle/Count))
system.cpu.l2cache.overallAvgMissLatency::cpu.data 80363.663214                       # average overall miss latency ((Cycle/Count))
system.cpu.l2cache.overallAvgMissLatency::total 80325.693937                       # average overall miss latency ((Cycle/Count))
system.cpu.l2cache.blockedCycles::no_mshrs            0                       # number of cycles access was blocked (Cycle)
system.cpu.l2cache.blockedCycles::no_targets            0                       # number of cycles access was blocked (Cycle)
system.cpu.l2cache.blockedCauses::no_mshrs            0                       # number of times access was blocked (Count)
system.cpu.l2cache.blockedCauses::no_targets            0                       # number of times access was blocked (Count)
system.cpu.l2cache.avgBlocked::no_mshrs           nan                       # average number of cycles each access was blocked ((Cycle/Count))
system.cpu.l2cache.avgBlocked::no_targets          nan                       # average number of cycles each access was blocked ((Cycle/Count))
system.cpu.l2cache.writebacks::writebacks       289059                       # number of writebacks (Count)
system.cpu.l2cache.writebacks::total           289059                       # number of writebacks (Count)
system.cpu.l2cache.demandMshrMisses::cpu.mmu.dtb.walker         9640                       # number of demand (read+write) MSHR misses (Count)
system.cpu.l2cache.demandMshrMisses::cpu.mmu.itb.walker            7                       # number of demand (read+write) MSHR misses (Count)
system.cpu.l2cache.demandMshrMisses::cpu.inst          666                       # number of demand (read+write) MSHR misses (Count)
system.cpu.l2cache.demandMshrMisses::cpu.data      3374628                       # number of demand (read+write) MSHR misses (Count)
system.cpu.l2cache.demandMshrMisses::total      3384941                       # number of demand (read+write) MSHR misses (Count)
system.cpu.l2cache.overallMshrMisses::cpu.mmu.dtb.walker         9640                       # number of overall MSHR misses (Count)
system.cpu.l2cache.overallMshrMisses::cpu.mmu.itb.walker            7                       # number of overall MSHR misses (Count)
system.cpu.l2cache.overallMshrMisses::cpu.inst          666                       # number of overall MSHR misses (Count)
system.cpu.l2cache.overallMshrMisses::cpu.data      3374628                       # number of overall MSHR misses (Count)
system.cpu.l2cache.overallMshrMisses::total      3384941                       # number of overall MSHR misses (Count)
system.cpu.l2cache.overallMshrUncacheable::cpu.data        30962                       # number of overall MSHR uncacheable misses (Count)
system.cpu.l2cache.overallMshrUncacheable::total        30962                       # number of overall MSHR uncacheable misses (Count)
system.cpu.l2cache.demandMshrMissLatency::cpu.mmu.dtb.walker    623902140                       # number of demand (read+write) MSHR miss ticks (Tick)
system.cpu.l2cache.demandMshrMissLatency::cpu.mmu.itb.walker       415917                       # number of demand (read+write) MSHR miss ticks (Tick)
system.cpu.l2cache.demandMshrMissLatency::cpu.inst     45040581                       # number of demand (read+write) MSHR miss ticks (Tick)
system.cpu.l2cache.demandMshrMissLatency::cpu.data 261083707947                       # number of demand (read+write) MSHR miss ticks (Tick)
system.cpu.l2cache.demandMshrMissLatency::total 261753066585                       # number of demand (read+write) MSHR miss ticks (Tick)
system.cpu.l2cache.overallMshrMissLatency::cpu.mmu.dtb.walker    623902140                       # number of overall MSHR miss ticks (Tick)
system.cpu.l2cache.overallMshrMissLatency::cpu.mmu.itb.walker       415917                       # number of overall MSHR miss ticks (Tick)
[...]
system.mem_ctrls.nvm.bytesPerBank::1920-1935           12      0.00%     99.97% # Bytes read within a bank before loading new bank (Byte)
system.mem_ctrls.nvm.bytesPerBank::1984-1999           23      0.00%     99.97% # Bytes read within a bank before loading new bank (Byte)
system.mem_ctrls.nvm.bytesPerBank::2048-2063           16      0.00%     99.97% # Bytes read within a bank before loading new bank (Byte)
system.mem_ctrls.nvm.bytesPerBank::2112-2127           28      0.00%     99.98% # Bytes read within a bank before loading new bank (Byte)
system.mem_ctrls.nvm.bytesPerBank::2176-2191           23      0.00%     99.98% # Bytes read within a bank before loading new bank (Byte)
system.mem_ctrls.nvm.bytesPerBank::2240-2255           20      0.00%     99.98% # Bytes read within a bank before loading new bank (Byte)
system.mem_ctrls.nvm.bytesPerBank::2304-2319           10      0.00%     99.98% # Bytes read within a bank before loading new bank (Byte)
system.mem_ctrls.nvm.bytesPerBank::2368-2383           11      0.00%     99.98% # Bytes read within a bank before loading new bank (Byte)
system.mem_ctrls.nvm.bytesPerBank::2432-2447            9      0.00%     99.98% # Bytes read within a bank before loading new bank (Byte)
system.mem_ctrls.nvm.bytesPerBank::2496-2511           14      0.00%     99.99% # Bytes read within a bank before loading new bank (Byte)
system.mem_ctrls.nvm.bytesPerBank::2560-2575           13      0.00%     99.99% # Bytes read within a bank before loading new bank (Byte)
system.mem_ctrls.nvm.bytesPerBank::2624-2639           11      0.00%     99.99% # Bytes read within a bank before loading new bank (Byte)
system.mem_ctrls.nvm.bytesPerBank::2688-2703           13      0.00%     99.99% # Bytes read within a bank before loading new bank (Byte)
system.mem_ctrls.nvm.bytesPerBank::2752-2767            9      0.00%     99.99% # Bytes read within a bank before loading new bank (Byte)
system.mem_ctrls.nvm.bytesPerBank::2816-2831            9      0.00%     99.99% # Bytes read within a bank before loading new bank (Byte)
system.mem_ctrls.nvm.bytesPerBank::2880-2895            9      0.00%     99.99% # Bytes read within a bank before loading new bank (Byte)
system.mem_ctrls.nvm.bytesPerBank::2944-2959            6      0.00%     99.99% # Bytes read within a bank before loading new bank (Byte)
system.mem_ctrls.nvm.bytesPerBank::3008-3023            5      0.00%     99.99% # Bytes read within a bank before loading new bank (Byte)
system.mem_ctrls.nvm.bytesPerBank::3072-3087            6      0.00%     99.99% # Bytes read within a bank before loading new bank (Byte)
system.mem_ctrls.nvm.bytesPerBank::3136-3151            2      0.00%     99.99% # Bytes read within a bank before loading new bank (Byte)
system.mem_ctrls.nvm.bytesPerBank::3200-3215           11      0.00%    100.00% # Bytes read within a bank before loading new bank (Byte)
system.mem_ctrls.nvm.bytesPerBank::3264-3279           12      0.00%    100.00% # Bytes read within a bank before loading new bank (Byte)
system.mem_ctrls.nvm.bytesPerBank::3328-3343            7      0.00%    100.00% # Bytes read within a bank before loading new bank (Byte)
system.mem_ctrls.nvm.bytesPerBank::3392-3407            5      0.00%    100.00% # Bytes read within a bank before loading new bank (Byte)
system.mem_ctrls.nvm.bytesPerBank::3456-3471            3      0.00%    100.00% # Bytes read within a bank before loading new bank (Byte)
system.mem_ctrls.nvm.bytesPerBank::3520-3535            5      0.00%    100.00% # Bytes read within a bank before loading new bank (Byte)
system.mem_ctrls.nvm.bytesPerBank::3648-3663            6      0.00%    100.00% # Bytes read within a bank before loading new bank (Byte)
system.mem_ctrls.nvm.bytesPerBank::3712-3727            5      0.00%    100.00% # Bytes read within a bank before loading new bank (Byte)
system.mem_ctrls.nvm.bytesPerBank::total       958384                       # Bytes read within a bank before loading new bank (Byte)
system.mem_ctrls.nvm.power_state.pwrStateResidencyTicks::UNDEFINED 38694166784982                       # Cumulative time (in ticks) in various power states (Tick)
system.mem_ctrls.power_state.pwrStateResidencyTicks::UNDEFINED 38694166784982                       # Cumulative time (in ticks) in various power states (Tick)
system.membus.transDist::ReadReq                  765                       # Transaction distribution (Count)
system.membus.transDist::ReadResp             2939349                       # Transaction distribution (Count)
system.membus.transDist::WriteReq               30197                       # Transaction distribution (Count)
system.membus.transDist::WriteResp              30197                       # Transaction distribution (Count)
system.membus.transDist::WritebackDirty        269616                       # Transaction distribution (Count)
system.membus.transDist::WriteClean            949343                       # Transaction distribution (Count)
system.membus.transDist::CleanEvict           2041358                       # Transaction distribution (Count)
system.membus.transDist::UpgradeReq            220941                       # Transaction distribution (Count)
system.membus.transDist::ReadExReq             388406                       # Transaction distribution (Count)
system.membus.transDist::ReadExResp            388406                       # Transaction distribution (Count)
system.membus.transDist::ReadSharedReq        2938584                       # Transaction distribution (Count)
system.membus.transDist::CleanInvalidReq      1284822                       # Transaction distribution (Count)
system.membus.pktCount_system.l3.mem_side_port::system.bridge.cpu_side_port         2988                       # Packet count per connected requestor and responder (Count)
system.membus.pktCount_system.l3.mem_side_port::system.cpu.interrupts.pio        58936                       # Packet count per connected requestor and responder (Count)
system.membus.pktCount_system.l3.mem_side_port::system.mem_ctrls.port     11420060                       # Packet count per connected requestor and responder (Count)
system.membus.pktCount_system.l3.mem_side_port::total     11481984                       # Packet count per connected requestor and responder (Count)
system.membus.pktCount::total                11481984                       # Packet count per connected requestor and responder (Count)
system.membus.pktSize_system.l3.mem_side_port::system.bridge.cpu_side_port         1519                       # Cumulative packet size per connected requestor and responder (Byte)
system.membus.pktSize_system.l3.mem_side_port::system.cpu.interrupts.pio       117872                       # Cumulative packet size per connected requestor and responder (Byte)
system.membus.pktSize_system.l3.mem_side_port::system.mem_ctrls.port    290940736                       # Cumulative packet size per connected requestor and responder (Byte)
system.membus.pktSize_system.l3.mem_side_port::total    291060127                       # Cumulative packet size per connected requestor and responder (Byte)
system.membus.pktSize::total                291060127                       # Cumulative packet size per connected requestor and responder (Byte)
system.membus.snoops                           220892                       # Total snoops (Count)
system.membus.snoopTraffic                          0                       # Total snoop traffic (Byte)
system.membus.snoopFanout::samples            4863715                       # Request fanout histogram (Count)
system.membus.snoopFanout::mean                     0                       # Request fanout histogram (Count)
system.membus.snoopFanout::stdev                    0                       # Request fanout histogram (Count)
system.membus.snoopFanout::underflows               0      0.00%      0.00% # Request fanout histogram (Count)
system.membus.snoopFanout::0                  4863715    100.00%    100.00% # Request fanout histogram (Count)
system.membus.snoopFanout::1                        0      0.00%    100.00% # Request fanout histogram (Count)
system.membus.snoopFanout::2                        0      0.00%    100.00% # Request fanout histogram (Count)
system.membus.snoopFanout::overflows                0      0.00%    100.00% # Request fanout histogram (Count)
system.membus.snoopFanout::min_value                0                       # Request fanout histogram (Count)
system.membus.snoopFanout::max_value                0                       # Request fanout histogram (Count)
system.membus.snoopFanout::total              4863715                       # Request fanout histogram (Count)
system.membus.badaddr_responder.power_state.pwrStateResidencyTicks::UNDEFINED 38694166784982                       # Cumulative time (in ticks) in various power states (Tick)
system.membus.power_state.pwrStateResidencyTicks::UNDEFINED 38694166784982                       # Cumulative time (in ticks) in various power states (Tick)
system.membus.reqLayer0.occupancy             3330583                       # Layer occupancy (ticks) (Tick)
system.membus.reqLayer0.utilization               0.0                       # Layer utilization (Ratio)
system.membus.reqLayer1.occupancy            75309722                       # Layer occupancy (ticks) (Tick)
system.membus.reqLayer1.utilization               0.0                       # Layer utilization (Ratio)
system.membus.reqLayer3.occupancy         15499255336                       # Layer occupancy (ticks) (Tick)
system.membus.reqLayer3.utilization               0.0                       # Layer utilization (Ratio)
system.membus.respLayer3.occupancy        17150665034                       # Layer occupancy (ticks) (Tick)
system.membus.respLayer3.utilization              0.0                       # Layer utilization (Ratio)
system.membus.snoop_filter.totRequests        7143727                       # Total number of requests made to the snoop filter. (Count)
system.membus.snoop_filter.hitSingleRequests      3514680                       # Number of requests hitting in the snoop filter with a single holder of the requested data. (Count)
system.membus.snoop_filter.hitMultiRequests            0                       # Number of requests hitting in the snoop filter with multiple (>1) holders of the requested data. (Count)
system.membus.snoop_filter.totSnoops                0                       # Total number of snoops made to the snoop filter. (Count)
system.membus.snoop_filter.hitSingleSnoops            0                       # Number of snoops hitting in the snoop filter with a single holder of the requested data. (Count)
system.membus.snoop_filter.hitMultiSnoops            0                       # Number of snoops hitting in the snoop filter with multiple (>1) holders of the requested data. (Count)
system.pc.bad_addr.power_state.pwrStateResidencyTicks::UNDEFINED 38694166784982                       # Cumulative time (in ticks) in various power states (Tick)
system.pc.com_1.power_state.pwrStateResidencyTicks::UNDEFINED 38694166784982                       # Cumulative time (in ticks) in various power states (Tick)
system.pc.default_bus.power_state.pwrStateResidencyTicks::UNDEFINED 38694166784982                       # Cumulative time (in ticks) in various power states (Tick)
system.pc.empty_isa.power_state.pwrStateResidencyTicks::UNDEFINED 38694166784982                       # Cumulative time (in ticks) in various power states (Tick)
system.pc.fake_com_2.power_state.pwrStateResidencyTicks::UNDEFINED 38694166784982                       # Cumulative time (in ticks) in various power states (Tick)
system.pc.fake_com_3.power_state.pwrStateResidencyTicks::UNDEFINED 38694166784982                       # Cumulative time (in ticks) in various power states (Tick)
system.pc.fake_com_4.power_state.pwrStateResidencyTicks::UNDEFINED 38694166784982                       # Cumulative time (in ticks) in various power states (Tick)
system.pc.fake_floppy.power_state.pwrStateResidencyTicks::UNDEFINED 38694166784982                       # Cumulative time (in ticks) in various power states (Tick)
system.pc.pci_host.power_state.pwrStateResidencyTicks::UNDEFINED 38694166784982                       # Cumulative time (in ticks) in various power states (Tick)
system.pc.south_bridge.cmos.power_state.pwrStateResidencyTicks::UNDEFINED 38694166784982                       # Cumulative time (in ticks) in various power states (Tick)
system.pc.south_bridge.dma1.power_state.pwrStateResidencyTicks::UNDEFINED 38694166784982                       # Cumulative time (in ticks) in various power states (Tick)
system.pc.south_bridge.ide.disks.IdeDisk.dmaReadFullPages            0                       # Number of full page size DMA reads (not PRD). (Count)
system.pc.south_bridge.ide.disks.IdeDisk.dmaReadBytes            0                       # Number of bytes transfered via DMA reads (not PRD). (Byte)
system.pc.south_bridge.ide.disks.IdeDisk.dmaReadTxs            0                       # Number of DMA read transactions (not PRD). (Count)
system.pc.south_bridge.ide.disks.IdeDisk.dmaWriteFullPages            0                       # Number of full page size DMA writes. (Count)
system.pc.south_bridge.ide.disks.IdeDisk.dmaWriteBytes            0                       # Number of bytes transfered via DMA writes. (Byte)
system.pc.south_bridge.ide.disks.IdeDisk.dmaWriteTxs            0                       # Number of DMA write transactions. (Count)
system.pc.south_bridge.ide.power_state.pwrStateResidencyTicks::UNDEFINED 38694166784982                       # Cumulative time (in ticks) in various power states (Tick)
system.pc.south_bridge.io_apic.power_state.pwrStateResidencyTicks::UNDEFINED 38694166784982                       # Cumulative time (in ticks) in various power states (Tick)
system.pc.south_bridge.keyboard.power_state.pwrStateResidencyTicks::UNDEFINED 38694166784982                       # Cumulative time (in ticks) in various power states (Tick)
system.pc.south_bridge.pic1.power_state.pwrStateResidencyTicks::UNDEFINED 38694166784982                       # Cumulative time (in ticks) in various power states (Tick)
system.pc.south_bridge.pic2.power_state.pwrStateResidencyTicks::UNDEFINED 38694166784982                       # Cumulative time (in ticks) in various power states (Tick)
system.pc.south_bridge.pit.power_state.pwrStateResidencyTicks::UNDEFINED 38694166784982                       # Cumulative time (in ticks) in various power states (Tick)
system.pc.south_bridge.speaker.power_state.pwrStateResidencyTicks::UNDEFINED 38694166784982                       # Cumulative time (in ticks) in various power states (Tick)
system.tol3bus.transDist::ReadReq                 765                       # Transaction distribution (Count)
system.tol3bus.transDist::ReadResp            2996646                       # Transaction distribution (Count)
system.tol3bus.transDist::WriteReq              30197                       # Transaction distribution (Count)
system.tol3bus.transDist::WriteResp             30197                       # Transaction distribution (Count)
system.tol3bus.transDist::WritebackDirty       558675                       # Transaction distribution (Count)
system.tol3bus.transDist::WriteClean           949343                       # Transaction distribution (Count)
system.tol3bus.transDist::CleanEvict          4146613                       # Transaction distribution (Count)
system.tol3bus.transDist::UpgradeReq           220947                       # Transaction distribution (Count)
system.tol3bus.transDist::UpgradeResp              55                       # Transaction distribution (Count)
system.tol3bus.transDist::ReadExReq            389059                       # Transaction distribution (Count)
system.tol3bus.transDist::ReadExResp           389059                       # Transaction distribution (Count)
system.tol3bus.transDist::ReadSharedReq       2995881                       # Transaction distribution (Count)
system.tol3bus.transDist::CleanInvalidReq      1284822                       # Transaction distribution (Count)
system.tol3bus.transDist::CleanInvalidResp      1284822                       # Transaction distribution (Count)
system.tol3bus.pktCount_system.cpu.l2cache.mem_side_port::system.l3.cpu_side_port     12965298                       # Packet count per connected requestor and responder (Count)
system.tol3bus.pktSize_system.cpu.l2cache.mem_side_port::system.l3.cpu_side_port    296013279                       # Cumulative packet size per connected requestor and responder (Byte)
system.tol3bus.snoops                         2532675                       # Total snoops (Count)
system.tol3bus.snoopTraffic                  17255424                       # Total snoop traffic (Byte)
system.tol3bus.snoopFanout::samples           7233454                       # Request fanout histogram (Count)
system.tol3bus.snoopFanout::mean             0.000712                       # Request fanout histogram (Count)
system.tol3bus.snoopFanout::stdev            0.026673                       # Request fanout histogram (Count)
system.tol3bus.snoopFanout::underflows              0      0.00%      0.00% # Request fanout histogram (Count)
system.tol3bus.snoopFanout::0                 7228304     99.93%     99.93% # Request fanout histogram (Count)
system.tol3bus.snoopFanout::1                    5150      0.07%    100.00% # Request fanout histogram (Count)
system.tol3bus.snoopFanout::overflows               0      0.00%    100.00% # Request fanout histogram (Count)
system.tol3bus.snoopFanout::min_value               0                       # Request fanout histogram (Count)
system.tol3bus.snoopFanout::max_value               1                       # Request fanout histogram (Count)
system.tol3bus.snoopFanout::total             7233454                       # Request fanout histogram (Count)
system.tol3bus.power_state.pwrStateResidencyTicks::UNDEFINED 38694166784982                       # Cumulative time (in ticks) in various power states (Tick)
system.tol3bus.reqLayer0.occupancy         3513359124                       # Layer occupancy (ticks) (Tick)
system.tol3bus.reqLayer0.utilization              0.0                       # Layer utilization (Ratio)
system.tol3bus.respLayer0.occupancy        3820238172                       # Layer occupancy (ticks) (Tick)
system.tol3bus.respLayer0.utilization             0.0                       # Layer utilization (Ratio)
system.tol3bus.snoop_filter.totRequests       7284214                       # Total number of requests made to the snoop filter. (Count)
system.tol3bus.snoop_filter.hitSingleRequests      3597230                       # Number of requests hitting in the snoop filter with a single holder of the requested data. (Count)
system.tol3bus.snoop_filter.hitMultiRequests            0                       # Number of requests hitting in the snoop filter with multiple (>1) holders of the requested data. (Count)
system.tol3bus.snoop_filter.totSnoops            5150                       # Total number of snoops made to the snoop filter. (Count)
system.tol3bus.snoop_filter.hitSingleSnoops         5150                       # Number of snoops hitting in the snoop filter with a single holder of the requested data. (Count)
system.tol3bus.snoop_filter.hitMultiSnoops            0                       # Number of snoops hitting in the snoop filter with multiple (>1) holders of the requested data. (Count)
system.voltage_domain.voltage                       1                       # Voltage in Volts (Volt)
system.workload.inst.arm                            0                       # number of arm instructions executed (Count)
system.workload.inst.quiesce                        0                       # number of quiesce instructions executed (Count)

---------- End Simulation Statistics   ----------
