
---------- Begin Simulation Statistics ----------
simSeconds                                  30.338790                       # Number of seconds simulated (Second)
simTicks                                 30338789753088                       # Number of ticks simulated (Tick)
finalTick                                30338789753088                       # Number of ticks from beginning of simulation (restored from checkpoints and never reset) (Tick)
simFreq                                  1000000000000                       # The number of ticks per simulated second ((Tick/Second))
hostSeconds                                  25033.00                       # Real time elapsed on the host (Second)
hostTickRate                               1211951876                       # The number of ticks simulated per host second (ticks/s) ((Tick/Second))
hostMemory                                    5508104                       # Number of bytes of host memory used (Byte)
simInsts                                  22041895716                       # Number of instructions simulated (Count)
simOps                                    30910825654                       # Number of ops (including micro ops) simulated (Count)
hostInstRate                                   880514                       # Simulator instruction rate (inst/s) ((Count/Second))
hostOpRate                                    1234803                       # Simulator op (including micro ops) rate (op/s) ((Count/Second))
system.apicbridge.power_state.pwrStateResidencyTicks::UNDEFINED 30338789753088                       # Cumulative time (in ticks) in various power states (Tick)
system.bridge.power_state.pwrStateResidencyTicks::UNDEFINED 30338789753088                       # Cumulative time (in ticks) in various power states (Tick)
system.clk_domain.clock                          1000                       # Clock period in ticks (Tick)
system.cpu.numCycles                      91107476736                       # Number of cpu cycles simulated (Cycle)
system.cpu.numUsrCycles                             0                       # Number of user mode cpu cycles simulated (Cycle)
system.cpu.numWorkItemsStarted                      0                       # Number of work items this cpu started (Count)
system.cpu.numWorkItemsCompleted                    0                       # Number of work items this cpu completed (Count)
system.cpu.dcache.demandHits::cpu.data    14287619077                       # number of demand (read+write) hits (Count)
system.cpu.dcache.demandHits::total       14287619077                       # number of demand (read+write) hits (Count)
system.cpu.dcache.overallHits::cpu.data   14287619077                       # number of overall hits (Count)
system.cpu.dcache.overallHits::total      14287619077                       # number of overall hits (Count)
system.cpu.dcache.demandMisses::cpu.data    401204234                       # number of demand (read+write) misses (Count)
system.cpu.dcache.demandMisses::total       401204234                       # number of demand (read+write) misses (Count)
system.cpu.dcache.overallMisses::cpu.data    401204234                       # number of overall misses (Count)
system.cpu.dcache.overallMisses::total      401204234                       # number of overall misses (Count)
system.cpu.dcache.demandMissLatency::cpu.data 2075903944407                       # number of demand (read+write) miss ticks (Tick)
system.cpu.dcache.demandMissLatency::total 2075903944407                       # number of demand (read+write) miss ticks (Tick)
system.cpu.dcache.overallMissLatency::cpu.data 2075903944407                       # number of overall miss ticks (Tick)
system.cpu.dcache.overallMissLatency::total 2075903944407                       # number of overall miss ticks (Tick)
system.cpu.dcache.demandAccesses::cpu.data  14688823311                       # number of demand (read+write) accesses (Count)
system.cpu.dcache.demandAccesses::total   14688823311                       # number of demand (read+write) accesses (Count)
system.cpu.dcache.overallAccesses::cpu.data  14688823311                       # number of overall (read+write) accesses (Count)
system.cpu.dcache.overallAccesses::total  14688823311                       # number of overall (read+write) accesses (Count)
system.cpu.dcache.demandMissRate::cpu.data     0.027314                       # miss rate for demand accesses (Ratio)
system.cpu.dcache.demandMissRate::total      0.027314                       # miss rate for demand accesses (Ratio)
system.cpu.dcache.overallMissRate::cpu.data     0.027314                       # miss rate for overall accesses (Ratio)
system.cpu.dcache.overallMissRate::total     0.027314                       # miss rate for overall accesses (Ratio)
system.cpu.dcache.demandAvgMissLatency::cpu.data  5174.182545                       # average overall miss latency ((Cycle/Count))
system.cpu.dcache.demandAvgMissLatency::total  5174.182545                       # average overall miss latency ((Cycle/Count))
system.cpu.dcache.overallAvgMissLatency::cpu.data  5174.182545                       # average overall miss latency ((Cycle/Count))
system.cpu.dcache.overallAvgMissLatency::total  5174.182545                       # average overall miss latency ((Cycle/Count))
system.cpu.dcache.blockedCycles::no_mshrs            0                       # number of cycles access was blocked (Cycle)
system.cpu.dcache.blockedCycles::no_targets            0                       # number of cycles access was blocked (Cycle)
system.cpu.dcache.blockedCauses::no_mshrs            0                       # number of times access was blocked (Count)
system.cpu.dcache.blockedCauses::no_targets            0                       # number of times access was blocked (Count)
system.cpu.dcache.avgBlocked::no_mshrs            nan                       # average number of cycles each access was blocked ((Cycle/Count))
system.cpu.dcache.avgBlocked::no_targets          nan                       # average number of cycles each access was blocked ((Cycle/Count))
system.cpu.dcache.writebacks::writebacks      3825204                       # number of writebacks (Count)
system.cpu.dcache.writebacks::total           3825204                       # number of writebacks (Count)
system.cpu.dcache.demandMshrMisses::cpu.data    401204234                       # number of demand (read+write) MSHR misses (Count)
system.cpu.dcache.demandMshrMisses::total    401204234                       # number of demand (read+write) MSHR misses (Count)
system.cpu.dcache.overallMshrMisses::cpu.data    401204234                       # number of overall MSHR misses (Count)
system.cpu.dcache.overallMshrMisses::total    401204234                       # number of overall MSHR misses (Count)
system.cpu.dcache.overallMshrUncacheable::cpu.data        25681                       # number of overall MSHR uncacheable misses (Count)
system.cpu.dcache.overallMshrUncacheable::total        25681                       # number of overall MSHR uncacheable misses (Count)
system.cpu.dcache.demandMshrMissLatency::cpu.data 1808701924563                       # number of demand (read+write) MSHR miss ticks (Tick)
system.cpu.dcache.demandMshrMissLatency::total 1808701924563                       # number of demand (read+write) MSHR miss ticks (Tick)
system.cpu.dcache.overallMshrMissLatency::cpu.data 1808701924563                       # number of overall MSHR miss ticks (Tick)
system.cpu.dcache.overallMshrMissLatency::total 1808701924563                       # number of overall MSHR miss ticks (Tick)
system.cpu.dcache.overallMshrUncacheableLatency::cpu.data    176318172                       # number of overall MSHR uncacheable ticks (Tick)
system.cpu.dcache.overallMshrUncacheableLatency::total    176318172                       # number of overall MSHR uncacheable ticks (Tick)
system.cpu.dcache.demandMshrMissRate::cpu.data     0.027314                       # mshr miss ratio for demand accesses (Ratio)
system.cpu.dcache.demandMshrMissRate::total     0.027314                       # mshr miss ratio for demand accesses (Ratio)
system.cpu.dcache.overallMshrMissRate::cpu.data     0.027314                       # mshr miss ratio for overall accesses (Ratio)
system.cpu.dcache.overallMshrMissRate::total     0.027314                       # mshr miss ratio for overall accesses (Ratio)
system.cpu.dcache.demandAvgMshrMissLatency::cpu.data  4508.182545                       # average overall mshr miss latency ((Cycle/Count))
system.cpu.dcache.demandAvgMshrMissLatency::total  4508.182545                       # average overall mshr miss latency ((Cycle/Count))
system.cpu.dcache.overallAvgMshrMissLatency::cpu.data  4508.182545                       # average overall mshr miss latency ((Cycle/Count))
system.cpu.dcache.overallAvgMshrMissLatency::total  4508.182545                       # average overall mshr miss latency ((Cycle/Count))
system.cpu.dcache.overallAvgMshrUncacheableLatency::cpu.data  6865.705074                       # average overall mshr uncacheable latency ((Cycle/Count))
system.cpu.dcache.overallAvgMshrUncacheableLatency::total  6865.705074                       # average overall mshr uncacheable latency ((Cycle/Count))
system.cpu.dcache.replacements              400105749                       # number of replacements (Count)
system.cpu.dcache.CleanInvalidReq.missLatency::cpu.data  24198886224                       # number of CleanInvalidReq miss ticks (Tick)
system.cpu.dcache.CleanInvalidReq.missLatency::total  24198886224                       # number of CleanInvalidReq miss ticks (Tick)
system.cpu.dcache.CleanInvalidReq.avgMissLatency::cpu.data          inf                       # average CleanInvalidReq miss latency ((Tick/Count))
system.cpu.dcache.CleanInvalidReq.avgMissLatency::total          inf                       # average CleanInvalidReq miss latency ((Tick/Count))
system.cpu.dcache.CleanInvalidReq.mshrMisses::cpu.data      1215527                       # number of CleanInvalidReq MSHR misses (Count)
system.cpu.dcache.CleanInvalidReq.mshrMisses::total      1215527                       # number of CleanInvalidReq MSHR misses (Count)
system.cpu.dcache.CleanInvalidReq.mshrMissLatency::cpu.data  30126283560                       # number of CleanInvalidReq MSHR miss ticks (Tick)
system.cpu.dcache.CleanInvalidReq.mshrMissLatency::total  30126283560                       # number of CleanInvalidReq MSHR miss ticks (Tick)
system.cpu.dcache.CleanInvalidReq.mshrMissRate::cpu.data          inf                       # mshr miss rate for CleanInvalidReq accesses (Ratio)
system.cpu.dcache.CleanInvalidReq.mshrMissRate::total          inf                       # mshr miss rate for CleanInvalidReq accesses (Ratio)
system.cpu.dcache.CleanInvalidReq.avgMshrMissLatency::cpu.data 24784.544942                       # average CleanInvalidReq mshr miss latency ((Tick/Count))
system.cpu.dcache.CleanInvalidReq.avgMshrMissLatency::total 24784.544942                       # average CleanInvalidReq mshr miss latency ((Tick/Count))
system.cpu.dcache.ReadReq.hits::cpu.data  10311045186                       # number of ReadReq hits (Count)
system.cpu.dcache.ReadReq.hits::total     10311045186                       # number of ReadReq hits (Count)
system.cpu.dcache.ReadReq.misses::cpu.data    400073329                       # number of ReadReq misses (Count)
system.cpu.dcache.ReadReq.misses::total     400073329                       # number of ReadReq misses (Count)
system.cpu.dcache.ReadReq.missLatency::cpu.data 2016768353859                       # number of ReadReq miss ticks (Tick)
system.cpu.dcache.ReadReq.missLatency::total 2016768353859                       # number of ReadReq miss ticks (Tick)
system.cpu.dcache.ReadReq.accesses::cpu.data  10711118515                       # number of ReadReq accesses(hits+misses) (Count)
system.cpu.dcache.ReadReq.accesses::total  10711118515                       # number of ReadReq accesses(hits+misses) (Count)
system.cpu.dcache.ReadReq.missRate::cpu.data     0.037351                       # miss rate for ReadReq accesses (Ratio)
system.cpu.dcache.ReadReq.missRate::total     0.037351                       # miss rate for ReadReq accesses (Ratio)
system.cpu.dcache.ReadReq.avgMissLatency::cpu.data  5040.996757                       # average ReadReq miss latency ((Tick/Count))
system.cpu.dcache.ReadReq.avgMissLatency::total  5040.996757                       # average ReadReq miss latency ((Tick/Count))
system.cpu.dcache.ReadReq.mshrMisses::cpu.data    400073329                       # number of ReadReq MSHR misses (Count)
system.cpu.dcache.ReadReq.mshrMisses::total    400073329                       # number of ReadReq MSHR misses (Count)
system.cpu.dcache.ReadReq.mshrUncacheable::cpu.data          767                       # number of ReadReq MSHR uncacheable (Count)
system.cpu.dcache.ReadReq.mshrUncacheable::total          767                       # number of ReadReq MSHR uncacheable (Count)
system.cpu.dcache.ReadReq.mshrMissLatency::cpu.data 1750319516745                       # number of ReadReq MSHR miss ticks (Tick)
system.cpu.dcache.ReadReq.mshrMissLatency::total 1750319516745                       # number of ReadReq MSHR miss ticks (Tick)
system.cpu.dcache.ReadReq.mshrUncacheableLatency::cpu.data    176318172                       # number of ReadReq MSHR uncacheable ticks (Tick)
system.cpu.dcache.ReadReq.mshrUncacheableLatency::total    176318172                       # number of ReadReq MSHR uncacheable ticks (Tick)
system.cpu.dcache.ReadReq.mshrMissRate::cpu.data     0.037351                       # mshr miss rate for ReadReq accesses (Ratio)
system.cpu.dcache.ReadReq.mshrMissRate::total     0.037351                       # mshr miss rate for ReadReq accesses (Ratio)
system.cpu.dcache.ReadReq.avgMshrMissLatency::cpu.data  4374.996757                       # average ReadReq mshr miss latency ((Tick/Count))
system.cpu.dcache.ReadReq.avgMshrMissLatency::total  4374.996757                       # average ReadReq mshr miss latency ((Tick/Count))
system.cpu.dcache.ReadReq.avgMshrUncacheableLatency::cpu.data 229880.276402                       # average ReadReq mshr uncacheable latency ((Tick/Count))
system.cpu.dcache.ReadReq.avgMshrUncacheableLatency::total 229880.276402                       # average ReadReq mshr uncacheable latency ((Tick/Count))
system.cpu.dcache.WriteReq.hits::cpu.data   3976573891                       # number of WriteReq hits (Count)
system.cpu.dcache.WriteReq.hits::total     3976573891                       # number of WriteReq hits (Count)
system.cpu.dcache.WriteReq.misses::cpu.data      1130905                       # number of WriteReq misses (Count)
system.cpu.dcache.WriteReq.misses::total      1130905                       # number of WriteReq misses (Count)
system.cpu.dcache.WriteReq.missLatency::cpu.data  59135590548                       # number of WriteReq miss ticks (Tick)
system.cpu.dcache.WriteReq.missLatency::total  59135590548                       # number of WriteReq miss ticks (Tick)
system.cpu.dcache.WriteReq.accesses::cpu.data   3977704796                       # number of WriteReq accesses(hits+misses) (Count)
system.cpu.dcache.WriteReq.accesses::total   3977704796                       # number of WriteReq accesses(hits+misses) (Count)
system.cpu.dcache.WriteReq.missRate::cpu.data     0.000284                       # miss rate for WriteReq accesses (Ratio)
system.cpu.dcache.WriteReq.missRate::total     0.000284                       # miss rate for WriteReq accesses (Ratio)
system.cpu.dcache.WriteReq.avgMissLatency::cpu.data 52290.502339                       # average WriteReq miss latency ((Tick/Count))
system.cpu.dcache.WriteReq.avgMissLatency::total 52290.502339                       # average WriteReq miss latency ((Tick/Count))
system.cpu.dcache.WriteReq.mshrMisses::cpu.data      1130905                       # number of WriteReq MSHR misses (Count)
system.cpu.dcache.WriteReq.mshrMisses::total      1130905                       # number of WriteReq MSHR misses (Count)
system.cpu.dcache.WriteReq.mshrUncacheable::cpu.data        24914                       # number of WriteReq MSHR uncacheable (Count)
system.cpu.dcache.WriteReq.mshrUncacheable::total        24914                       # number of WriteReq MSHR uncacheable (Count)
system.cpu.dcache.WriteReq.mshrMissLatency::cpu.data  58382407818                       # number of WriteReq MSHR miss ticks (Tick)
system.cpu.dcache.WriteReq.mshrMissLatency::total  58382407818                       # number of WriteReq MSHR miss ticks (Tick)
system.cpu.dcache.WriteReq.mshrMissRate::cpu.data     0.000284                       # mshr miss rate for WriteReq accesses (Ratio)
system.cpu.dcache.WriteReq.mshrMissRate::total     0.000284                       # mshr miss rate for WriteReq accesses (Ratio)
system.cpu.dcache.WriteReq.avgMshrMissLatency::cpu.data 51624.502339                       # average WriteReq mshr miss latency ((Tick/Count))
system.cpu.dcache.WriteReq.avgMshrMissLatency::total 51624.502339                       # average WriteReq mshr miss latency ((Tick/Count))
system.cpu.dcache.power_state.pwrStateResidencyTicks::UNDEFINED 30338789753088                       # Cumulative time (in ticks) in various power states (Tick)
system.cpu.dcache.tags.tagsInUse           511.700621                       # Average ticks per tags in use ((Tick/Count))
system.cpu.dcache.tags.totalRefs          14689736487                       # Total number of references to valid blocks. (Count)
system.cpu.dcache.tags.sampledRefs          401203591                       # Sample count of references to valid blocks. (Count)
system.cpu.dcache.tags.avgRefs              36.614170                       # Average number of references to valid blocks. ((Count/Count))
system.cpu.dcache.tags.warmupTick              449883                       # The tick when the warmup percentage was hit. (Tick)
system.cpu.dcache.tags.occupancies::cpu.data   511.700621                       # Average occupied blocks per tick, per requestor ((Count/Tick))
system.cpu.dcache.tags.avgOccs::cpu.data     0.999415                       # Average percentage of cache occupancy ((Ratio/Tick))
system.cpu.dcache.tags.avgOccs::total        0.999415                       # Average percentage of cache occupancy ((Ratio/Tick))
system.cpu.dcache.tags.occupanciesTaskId::1024          512                       # Occupied blocks per task id (Count)
system.cpu.dcache.tags.ageTaskId_1024::1            7                       # Occupied blocks per task id, per block age (Count)
system.cpu.dcache.tags.ageTaskId_1024::2          499                       # Occupied blocks per task id, per block age (Count)
system.cpu.dcache.tags.ageTaskId_1024::4            6                       # Occupied blocks per task id, per block age (Count)
system.cpu.dcache.tags.ratioOccsTaskId::1024            1                       # Ratio of occupied blocks and all blocks, per task id (Ratio)
system.cpu.dcache.tags.tagAccesses       117921514295                       # Number of tag accesses (Count)
system.cpu.dcache.tags.dataAccesses      117921514295                       # Number of data accesses (Count)
system.cpu.dcache.tags.power_state.pwrStateResidencyTicks::UNDEFINED 30338789753088                       # Cumulative time (in ticks) in various power states (Tick)
system.cpu.dtb_walker_cache.demandHits::cpu.mmu.dtb.walker      1374779                       # number of demand (read+write) hits (Count)
system.cpu.dtb_walker_cache.demandHits::total      1374779                       # number of demand (read+write) hits (Count)
system.cpu.dtb_walker_cache.overallHits::cpu.mmu.dtb.walker      1374779                       # number of overall hits (Count)
system.cpu.dtb_walker_cache.overallHits::total      1374779                       # number of overall hits (Count)
system.cpu.dtb_walker_cache.demandMisses::cpu.mmu.dtb.walker       397554                       # number of demand (read+write) misses (Count)
system.cpu.dtb_walker_cache.demandMisses::total       397554                       # number of demand (read+write) misses (Count)
system.cpu.dtb_walker_cache.overallMisses::cpu.mmu.dtb.walker       397554                       # number of overall misses (Count)
system.cpu.dtb_walker_cache.overallMisses::total       397554                       # number of overall misses (Count)
system.cpu.dtb_walker_cache.demandMissLatency::cpu.mmu.dtb.walker   1324678995                       # number of demand (read+write) miss ticks (Tick)
system.cpu.dtb_walker_cache.demandMissLatency::total   1324678995                       # number of demand (read+write) miss ticks (Tick)
system.cpu.dtb_walker_cache.overallMissLatency::cpu.mmu.dtb.walker   1324678995                       # number of overall miss ticks (Tick)
system.cpu.dtb_walker_cache.overallMissLatency::total   1324678995                       # number of overall miss ticks (Tick)
system.cpu.dtb_walker_cache.demandAccesses::cpu.mmu.dtb.walker      1772333                       # number of demand (read+write) accesses (Count)
system.cpu.dtb_walker_cache.demandAccesses::total      1772333                       # number of demand (read+write) accesses (Count)
system.cpu.dtb_walker_cache.overallAccesses::cpu.mmu.dtb.walker      1772333                       # number of overall (read+write) accesses (Count)
system.cpu.dtb_walker_cache.overallAccesses::total      1772333                       # number of overall (read+write) accesses (Count)
system.cpu.dtb_walker_cache.demandMissRate::cpu.mmu.dtb.walker     0.224311                       # miss rate for demand accesses (Ratio)
system.cpu.dtb_walker_cache.demandMissRate::total     0.224311                       # miss rate for demand accesses (Ratio)
system.cpu.dtb_walker_cache.overallMissRate::cpu.mmu.dtb.walker     0.224311                       # miss rate for overall accesses (Ratio)
system.cpu.dtb_walker_cache.overallMissRate::total     0.224311                       # miss rate for overall accesses (Ratio)
system.cpu.dtb_walker_cache.demandAvgMissLatency::cpu.mmu.dtb.walker  3332.073115                       # average overall miss latency ((Cycle/Count))
system.cpu.dtb_walker_cache.demandAvgMissLatency::total  3332.073115                       # average overall miss latency ((Cycle/Count))
system.cpu.dtb_walker_cache.overallAvgMissLatency::cpu.mmu.dtb.walker  3332.073115                       # average overall miss latency ((Cycle/Count))
system.cpu.dtb_walker_cache.overallAvgMissLatency::total  3332.073115                       # average overall miss latency ((Cycle/Count))
system.cpu.dtb_walker_cache.blockedCycles::no_mshrs            0                       # number of cycles access was blocked (Cycle)
system.cpu.dtb_walker_cache.blockedCycles::no_targets            0                       # number of cycles access was blocked (Cycle)
system.cpu.dtb_walker_cache.blockedCauses::no_mshrs            0                       # number of times access was blocked (Count)
system.cpu.dtb_walker_cache.blockedCauses::no_targets            0                       # number of times access was blocked (Count)
system.cpu.dtb_walker_cache.avgBlocked::no_mshrs          nan                       # average number of cycles each access was blocked ((Cycle/Count))
system.cpu.dtb_walker_cache.avgBlocked::no_targets          nan                       # average number of cycles each access was blocked ((Cycle/Count))
system.cpu.dtb_walker_cache.writebacks::writebacks        25232                       # number of writebacks (Count)
system.cpu.dtb_walker_cache.writebacks::total        25232                       # number of writebacks (Count)
system.cpu.dtb_walker_cache.demandMshrMisses::cpu.mmu.dtb.walker       397554                       # number of demand (read+write) MSHR misses (Count)
system.cpu.dtb_walker_cache.demandMshrMisses::total       397554                       # number of demand (read+write) MSHR misses (Count)
system.cpu.dtb_walker_cache.overallMshrMisses::cpu.mmu.dtb.walker       397554                       # number of overall MSHR misses (Count)
system.cpu.dtb_walker_cache.overallMshrMisses::total       397554                       # number of overall MSHR misses (Count)
system.cpu.dtb_walker_cache.demandMshrMissLatency::cpu.mmu.dtb.walker   1059908031                       # number of demand (read+write) MSHR miss ticks (Tick)
system.cpu.dtb_walker_cache.demandMshrMissLatency::total   1059908031                       # number of demand (read+write) MSHR miss ticks (Tick)
system.cpu.dtb_walker_cache.overallMshrMissLatency::cpu.mmu.dtb.walker   1059908031                       # number of overall MSHR miss ticks (Tick)
system.cpu.dtb_walker_cache.overallMshrMissLatency::total   1059908031                       # number of overall MSHR miss ticks (Tick)
system.cpu.dtb_walker_cache.demandMshrMissRate::cpu.mmu.dtb.walker     0.224311                       # mshr miss ratio for demand accesses (Ratio)
system.cpu.dtb_walker_cache.demandMshrMissRate::total     0.224311                       # mshr miss ratio for demand accesses (Ratio)
system.cpu.dtb_walker_cache.overallMshrMissRate::cpu.mmu.dtb.walker     0.224311                       # mshr miss ratio for overall accesses (Ratio)
system.cpu.dtb_walker_cache.overallMshrMissRate::total     0.224311                       # mshr miss ratio for overall accesses (Ratio)
system.cpu.dtb_walker_cache.demandAvgMshrMissLatency::cpu.mmu.dtb.walker  2666.073115                       # average overall mshr miss latency ((Cycle/Count))
system.cpu.dtb_walker_cache.demandAvgMshrMissLatency::total  2666.073115                       # average overall mshr miss latency ((Cycle/Count))
system.cpu.dtb_walker_cache.overallAvgMshrMissLatency::cpu.mmu.dtb.walker  2666.073115                       # average overall mshr miss latency ((Cycle/Count))
system.cpu.dtb_walker_cache.overallAvgMshrMissLatency::total  2666.073115                       # average overall mshr miss latency ((Cycle/Count))
system.cpu.dtb_walker_cache.replacements        49520                       # number of replacements (Count)
system.cpu.dtb_walker_cache.ReadReq.hits::cpu.mmu.dtb.walker      1230917                       # number of ReadReq hits (Count)
system.cpu.dtb_walker_cache.ReadReq.hits::total      1230917                       # number of ReadReq hits (Count)
system.cpu.dtb_walker_cache.ReadReq.misses::cpu.mmu.dtb.walker       213389                       # number of ReadReq misses (Count)
system.cpu.dtb_walker_cache.ReadReq.misses::total       213389                       # number of ReadReq misses (Count)
system.cpu.dtb_walker_cache.ReadReq.missLatency::cpu.mmu.dtb.walker    887143635                       # number of ReadReq miss ticks (Tick)
system.cpu.dtb_walker_cache.ReadReq.missLatency::total    887143635                       # number of ReadReq miss ticks (Tick)
system.cpu.dtb_walker_cache.ReadReq.accesses::cpu.mmu.dtb.walker      1444306                       # number of ReadReq accesses(hits+misses) (Count)
system.cpu.dtb_walker_cache.ReadReq.accesses::total      1444306                       # number of ReadReq accesses(hits+misses) (Count)
system.cpu.dtb_walker_cache.ReadReq.missRate::cpu.mmu.dtb.walker     0.147745                       # miss rate for ReadReq accesses (Ratio)
system.cpu.dtb_walker_cache.ReadReq.missRate::total     0.147745                       # miss rate for ReadReq accesses (Ratio)
system.cpu.dtb_walker_cache.ReadReq.avgMissLatency::cpu.mmu.dtb.walker  4157.400967                       # average ReadReq miss latency ((Tick/Count))
system.cpu.dtb_walker_cache.ReadReq.avgMissLatency::total  4157.400967                       # average ReadReq miss latency ((Tick/Count))
system.cpu.dtb_walker_cache.ReadReq.mshrMisses::cpu.mmu.dtb.walker       213389                       # number of ReadReq MSHR misses (Count)
system.cpu.dtb_walker_cache.ReadReq.mshrMisses::total       213389                       # number of ReadReq MSHR misses (Count)
system.cpu.dtb_walker_cache.ReadReq.mshrMissLatency::cpu.mmu.dtb.walker    745026561                       # number of ReadReq MSHR miss ticks (Tick)
system.cpu.dtb_walker_cache.ReadReq.mshrMissLatency::total    745026561                       # number of ReadReq MSHR miss ticks (Tick)
system.cpu.dtb_walker_cache.ReadReq.mshrMissRate::cpu.mmu.dtb.walker     0.147745                       # mshr miss rate for ReadReq accesses (Ratio)
system.cpu.dtb_walker_cache.ReadReq.mshrMissRate::total     0.147745                       # mshr miss rate for ReadReq accesses (Ratio)
system.cpu.dtb_walker_cache.ReadReq.avgMshrMissLatency::cpu.mmu.dtb.walker  3491.400967                       # average ReadReq mshr miss latency ((Tick/Count))
system.cpu.dtb_walker_cache.ReadReq.avgMshrMissLatency::total  3491.400967                       # average ReadReq mshr miss latency ((Tick/Count))
system.cpu.dtb_walker_cache.WriteReq.hits::cpu.mmu.dtb.walker       143862                       # number of WriteReq hits (Count)
system.cpu.dtb_walker_cache.WriteReq.hits::total       143862                       # number of WriteReq hits (Count)
system.cpu.dtb_walker_cache.WriteReq.misses::cpu.mmu.dtb.walker       184165                       # number of WriteReq misses (Count)
system.cpu.dtb_walker_cache.WriteReq.misses::total       184165                       # number of WriteReq misses (Count)
system.cpu.dtb_walker_cache.WriteReq.missLatency::cpu.mmu.dtb.walker    437535360                       # number of WriteReq miss ticks (Tick)
system.cpu.dtb_walker_cache.WriteReq.missLatency::total    437535360                       # number of WriteReq miss ticks (Tick)
system.cpu.dtb_walker_cache.WriteReq.accesses::cpu.mmu.dtb.walker       328027                       # number of WriteReq accesses(hits+misses) (Count)
system.cpu.dtb_walker_cache.WriteReq.accesses::total       328027                       # number of WriteReq accesses(hits+misses) (Count)
system.cpu.dtb_walker_cache.WriteReq.missRate::cpu.mmu.dtb.walker     0.561432                       # miss rate for WriteReq accesses (Ratio)
system.cpu.dtb_walker_cache.WriteReq.missRate::total     0.561432                       # miss rate for WriteReq accesses (Ratio)
system.cpu.dtb_walker_cache.WriteReq.avgMissLatency::cpu.mmu.dtb.walker  2375.779111                       # average WriteReq miss latency ((Tick/Count))
system.cpu.dtb_walker_cache.WriteReq.avgMissLatency::total  2375.779111                       # average WriteReq miss latency ((Tick/Count))
system.cpu.dtb_walker_cache.WriteReq.mshrMisses::cpu.mmu.dtb.walker       184165                       # number of WriteReq MSHR misses (Count)
system.cpu.dtb_walker_cache.WriteReq.mshrMisses::total       184165                       # number of WriteReq MSHR misses (Count)
system.cpu.dtb_walker_cache.WriteReq.mshrMissLatency::cpu.mmu.dtb.walker    314881470                       # number of WriteReq MSHR miss ticks (Tick)
system.cpu.dtb_walker_cache.WriteReq.mshrMissLatency::total    314881470                       # number of WriteReq MSHR miss ticks (Tick)
system.cpu.dtb_walker_cache.WriteReq.mshrMissRate::cpu.mmu.dtb.walker     0.561432                       # mshr miss rate for WriteReq accesses (Ratio)
system.cpu.dtb_walker_cache.WriteReq.mshrMissRate::total     0.561432                       # mshr miss rate for WriteReq accesses (Ratio)
system.cpu.dtb_walker_cache.WriteReq.avgMshrMissLatency::cpu.mmu.dtb.walker  1709.779111                       # average WriteReq mshr miss latency ((Tick/Count))
system.cpu.dtb_walker_cache.WriteReq.avgMshrMissLatency::total  1709.779111                       # average WriteReq mshr miss latency ((Tick/Count))
system.cpu.dtb_walker_cache.power_state.pwrStateResidencyTicks::UNDEFINED 30338789753088                       # Cumulative time (in ticks) in various power states (Tick)
system.cpu.dtb_walker_cache.tags.tagsInUse    15.528907                       # Average ticks per tags in use ((Tick/Count))
system.cpu.dtb_walker_cache.tags.totalRefs      1772333                       # Total number of references to valid blocks. (Count)
system.cpu.dtb_walker_cache.tags.sampledRefs       213389                       # Sample count of references to valid blocks. (Count)
system.cpu.dtb_walker_cache.tags.avgRefs     8.305644                       # Average number of references to valid blocks. ((Count/Count))
system.cpu.dtb_walker_cache.tags.warmupTick       367965                       # The tick when the warmup percentage was hit. (Tick)
system.cpu.dtb_walker_cache.tags.occupancies::cpu.mmu.dtb.walker    15.528907                       # Average occupied blocks per tick, per requestor ((Count/Tick))
system.cpu.dtb_walker_cache.tags.avgOccs::cpu.mmu.dtb.walker     0.970557                       # Average percentage of cache occupancy ((Ratio/Tick))
system.cpu.dtb_walker_cache.tags.avgOccs::total     0.970557                       # Average percentage of cache occupancy ((Ratio/Tick))
system.cpu.dtb_walker_cache.tags.occupanciesTaskId::1024            4                       # Occupied blocks per task id (Count)
system.cpu.dtb_walker_cache.tags.ageTaskId_1024::1            2                       # Occupied blocks per task id, per block age (Count)
system.cpu.dtb_walker_cache.tags.ageTaskId_1024::4            2                       # Occupied blocks per task id, per block age (Count)
system.cpu.dtb_walker_cache.tags.ratioOccsTaskId::1024     0.250000                       # Ratio of occupied blocks and all blocks, per task id (Ratio)
system.cpu.dtb_walker_cache.tags.tagAccesses      3758055                       # Number of tag accesses (Count)
system.cpu.dtb_walker_cache.tags.dataAccesses      3758055                       # Number of data accesses (Count)
system.cpu.dtb_walker_cache.tags.power_state.pwrStateResidencyTicks::UNDEFINED 30338789753088                       # Cumulative time (in ticks) in various power states (Tick)
system.cpu.exec_context.thread_0.numInsts  22041895716                       # Number of instructions committed (Count)
system.cpu.exec_context.thread_0.numUsrInsts            0                       # Number of user space instructions committed (Count)
system.cpu.exec_context.thread_0.numOps   30910825654                       # Number of ops (including micro ops) committed (Count)
system.cpu.exec_context.thread_0.numIntAluAccesses  30882602307                       # Number of integer alu accesses (Count)
system.cpu.exec_context.thread_0.numFpAluAccesses            0                       # Number of float alu accesses (Count)
system.cpu.exec_context.thread_0.numVecAluAccesses            0                       # Number of vector alu accesses (Count)
system.cpu.exec_context.thread_0.numCallsReturns    308980029                       # Number of times a function call or return occured (Count)
system.cpu.exec_context.thread_0.numCondCtrlInsts   2257070236                       # Number of instructions that are conditional controls (Count)
system.cpu.exec_context.thread_0.numIntInsts  30882602307                       # Number of integer instructions (Count)
system.cpu.exec_context.thread_0.numFpInsts            0                       # Number of float instructions (Count)
system.cpu.exec_context.thread_0.numVecInsts            0                       # Number of vector instructions (Count)
system.cpu.exec_context.thread_0.numIntRegReads  54654470180                       # Number of times the integer registers were read (Count)
system.cpu.exec_context.thread_0.numIntRegWrites  24321410488                       # Number of times the integer registers were written (Count)
system.cpu.exec_context.thread_0.numFpRegReads            0                       # Number of times the floating registers were read (Count)
system.cpu.exec_context.thread_0.numFpRegWrites            0                       # Number of times the floating registers were written (Count)
system.cpu.exec_context.thread_0.numVecRegReads            0                       # Number of times the vector registers were read (Count)
system.cpu.exec_context.thread_0.numVecRegWrites            0                       # Number of times the vector registers were written (Count)
system.cpu.exec_context.thread_0.numVecPredRegReads            0                       # Number of times the predicate registers were read (Count)
system.cpu.exec_context.thread_0.numVecPredRegWrites            0                       # Number of times the predicate registers were written (Count)
system.cpu.exec_context.thread_0.numCCRegReads  14133669434                       # Number of times the CC registers were read (Count)
system.cpu.exec_context.thread_0.numCCRegWrites  10041825060                       # Number of times the CC registers were written (Count)
system.cpu.exec_context.thread_0.numMiscRegReads  19699834440                       # Number of times the Misc registers were read (Count)
system.cpu.exec_context.thread_0.numMiscRegWrites      3266244                       # Number of times the Misc registers were written (Count)
system.cpu.exec_context.thread_0.numMemRefs  14690064548                       # Number of memory refs (Count)
system.cpu.exec_context.thread_0.numLoadInsts  10710955443                       # Number of load instructions (Count)
system.cpu.exec_context.thread_0.numStoreInsts   3979109105                       # Number of store instructions (Count)
system.cpu.exec_context.thread_0.numIdleCycles            0                       # Number of idle cycles (Cycle)
system.cpu.exec_context.thread_0.numBusyCycles  91107476736                       # Number of busy cycles (Cycle)
system.cpu.exec_context.thread_0.notIdleFraction            1                       # Percentage of non-idle cycles (Ratio)
system.cpu.exec_context.thread_0.idleFraction            0                       # Percentage of idle cycles (Ratio)
system.cpu.exec_context.thread_0.numBranches   2581557425                       # Number of branches fetched (Count)
system.cpu.exec_context.thread_0.statExecutedInstType::No_OpClass     19063775      0.06%      0.06% # Class of executed instruction. (Count)
system.cpu.exec_context.thread_0.statExecutedInstType::IntAlu  16201551471     52.41%     52.48% # Class of executed instruction. (Count)
system.cpu.exec_context.thread_0.statExecutedInstType::IntMult       295327      0.00%     52.48% # Class of executed instruction. (Count)
system.cpu.exec_context.thread_0.statExecutedInstType::IntDiv        14392      0.00%     52.48% # Class of executed instruction. (Count)
system.cpu.exec_context.thread_0.statExecutedInstType::FloatAdd            0      0.00%     52.48% # Class of executed instruction. (Count)
system.cpu.exec_context.thread_0.statExecutedInstType::FloatCmp            0      0.00%     52.48% # Class of executed instruction. (Count)
system.cpu.exec_context.thread_0.statExecutedInstType::FloatCvt            0      0.00%     52.48% # Class of executed instruction. (Count)
system.cpu.exec_context.thread_0.statExecutedInstType::FloatMult            0      0.00%     52.48% # Class of executed instruction. (Count)
system.cpu.exec_context.thread_0.statExecutedInstType::FloatMultAcc            0      0.00%     52.48% # Class of executed instruction. (Count)
system.cpu.exec_context.thread_0.statExecutedInstType::FloatDiv            0      0.00%     52.48% # Class of executed instruction. (Count)
system.cpu.exec_context.thread_0.statExecutedInstType::FloatMisc            0      0.00%     52.48% # Class of executed instruction. (Count)
system.cpu.exec_context.thread_0.statExecutedInstType::FloatSqrt            0      0.00%     52.48% # Class of executed instruction. (Count)
system.cpu.exec_context.thread_0.statExecutedInstType::SimdAdd            0      0.00%     52.48% # Class of executed instruction. (Count)
system.cpu.exec_context.thread_0.statExecutedInstType::SimdAddAcc            0      0.00%     52.48% # Class of executed instruction. (Count)
system.cpu.exec_context.thread_0.statExecutedInstType::SimdAlu            0      0.00%     52.48% # Class of executed instruction. (Count)
system.cpu.exec_context.thread_0.statExecutedInstType::SimdCmp            0      0.00%     52.48% # Class of executed instruction. (Count)
system.cpu.exec_context.thread_0.statExecutedInstType::SimdCvt            0      0.00%     52.48% # Class of executed instruction. (Count)
system.cpu.exec_context.thread_0.statExecutedInstType::SimdMisc            0      0.00%     52.48% # Class of executed instruction. (Count)
system.cpu.exec_context.thread_0.statExecutedInstType::SimdMult            0      0.00%     52.48% # Class of executed instruction. (Count)
system.cpu.exec_context.thread_0.statExecutedInstType::SimdMultAcc            0      0.00%     52.48% # Class of executed instruction. (Count)
system.cpu.exec_context.thread_0.statExecutedInstType::SimdShift            0      0.00%     52.48% # Class of executed instruction. (Count)
system.cpu.exec_context.thread_0.statExecutedInstType::SimdShiftAcc            0      0.00%     52.48% # Class of executed instruction. (Count)
system.cpu.exec_context.thread_0.statExecutedInstType::SimdDiv            0      0.00%     52.48% # Class of executed instruction. (Count)
system.cpu.exec_context.thread_0.statExecutedInstType::SimdSqrt            0      0.00%     52.48% # Class of executed instruction. (Count)
system.cpu.exec_context.thread_0.statExecutedInstType::SimdFloatAdd            0      0.00%     52.48% # Class of executed instruction. (Count)
system.cpu.exec_context.thread_0.statExecutedInstType::SimdFloatAlu            0      0.00%     52.48% # Class of executed instruction. (Count)
system.cpu.exec_context.thread_0.statExecutedInstType::SimdFloatCmp            0      0.00%     52.48% # Class of executed instruction. (Count)
system.cpu.exec_context.thread_0.statExecutedInstType::SimdFloatCvt            0      0.00%     52.48% # Class of executed instruction. (Count)
system.cpu.exec_context.thread_0.statExecutedInstType::SimdFloatDiv            0      0.00%     52.48% # Class of executed instruction. (Count)
system.cpu.exec_context.thread_0.statExecutedInstType::SimdFloatMisc            0      0.00%     52.48% # Class of executed instruction. (Count)
system.cpu.exec_context.thread_0.statExecutedInstType::SimdFloatMult            0      0.00%     52.48% # Class of executed instruction. (Count)
system.cpu.exec_context.thread_0.statExecutedInstType::SimdFloatMultAcc            0      0.00%     52.48% # Class of executed instruction. (Count)
system.cpu.exec_context.thread_0.statExecutedInstType::SimdFloatSqrt            0      0.00%     52.48% # Class of executed instruction. (Count)
system.cpu.exec_context.thread_0.statExecutedInstType::SimdReduceAdd            0      0.00%     52.48% # Class of executed instruction. (Count)
system.cpu.exec_context.thread_0.statExecutedInstType::SimdReduceAlu            0      0.00%     52.48% # Class of executed instruction. (Count)
system.cpu.exec_context.thread_0.statExecutedInstType::SimdReduceCmp            0      0.00%     52.48% # Class of executed instruction. (Count)
system.cpu.exec_context.thread_0.statExecutedInstType::SimdFloatReduceAdd            0      0.00%     52.48% # Class of executed instruction. (Count)
system.cpu.exec_context.thread_0.statExecutedInstType::SimdFloatReduceCmp            0      0.00%     52.48% # Class of executed instruction. (Count)
system.cpu.exec_context.thread_0.statExecutedInstType::SimdAes            0      0.00%     52.48% # Class of executed instruction. (Count)
system.cpu.exec_context.thread_0.statExecutedInstType::SimdAesMix            0      0.00%     52.48% # Class of executed instruction. (Count)
system.cpu.exec_context.thread_0.statExecutedInstType::SimdSha1Hash            0      0.00%     52.48% # Class of executed instruction. (Count)
system.cpu.exec_context.thread_0.statExecutedInstType::SimdSha1Hash2            0      0.00%     52.48% # Class of executed instruction. (Count)
system.cpu.exec_context.thread_0.statExecutedInstType::SimdSha256Hash            0      0.00%     52.48% # Class of executed instruction. (Count)
system.cpu.exec_context.thread_0.statExecutedInstType::SimdSha256Hash2            0      0.00%     52.48% # Class of executed instruction. (Count)
system.cpu.exec_context.thread_0.statExecutedInstType::SimdShaSigma2            0      0.00%     52.48% # Class of executed instruction. (Count)
system.cpu.exec_context.thread_0.statExecutedInstType::SimdShaSigma3            0      0.00%     52.48% # Class of executed instruction. (Count)
system.cpu.exec_context.thread_0.statExecutedInstType::SimdPredAlu            0      0.00%     52.48% # Class of executed instruction. (Count)
system.cpu.exec_context.thread_0.statExecutedInstType::MemRead  10710955443     34.65%     87.13% # Class of executed instruction. (Count)
system.cpu.exec_context.thread_0.statExecutedInstType::MemWrite   3979109105     12.87%    100.00% # Class of executed instruction. (Count)
system.cpu.exec_context.thread_0.statExecutedInstType::FloatMemRead            0      0.00%    100.00% # Class of executed instruction. (Count)
system.cpu.exec_context.thread_0.statExecutedInstType::FloatMemWrite            0      0.00%    100.00% # Class of executed instruction. (Count)
system.cpu.exec_context.thread_0.statExecutedInstType::IprAccess            0      0.00%    100.00% # Class of executed instruction. (Count)
system.cpu.exec_context.thread_0.statExecutedInstType::InstPrefetch            0      0.00%    100.00% # Class of executed instruction. (Count)
system.cpu.exec_context.thread_0.statExecutedInstType::total  30910989513                       # Class of executed instruction. (Count)
system.cpu.icache.demandHits::cpu.inst    30082588940                       # number of demand (read+write) hits (Count)
system.cpu.icache.demandHits::total       30082588940                       # number of demand (read+write) hits (Count)
system.cpu.icache.overallHits::cpu.inst   30082588940                       # number of overall hits (Count)
system.cpu.icache.overallHits::total      30082588940                       # number of overall hits (Count)
system.cpu.icache.demandMisses::cpu.inst          668                       # number of demand (read+write) misses (Count)
system.cpu.icache.demandMisses::total             668                       # number of demand (read+write) misses (Count)
system.cpu.icache.overallMisses::cpu.inst          668                       # number of overall misses (Count)
system.cpu.icache.overallMisses::total            668                       # number of overall misses (Count)
system.cpu.icache.demandMissLatency::cpu.inst     48149802                       # number of demand (read+write) miss ticks (Tick)
system.cpu.icache.demandMissLatency::total     48149802                       # number of demand (read+write) miss ticks (Tick)
system.cpu.icache.overallMissLatency::cpu.inst     48149802                       # number of overall miss ticks (Tick)
system.cpu.icache.overallMissLatency::total     48149802                       # number of overall miss ticks (Tick)
system.cpu.icache.demandAccesses::cpu.inst  30082589608                       # number of demand (read+write) accesses (Count)
system.cpu.icache.demandAccesses::total   30082589608                       # number of demand (read+write) accesses (Count)
system.cpu.icache.overallAccesses::cpu.inst  30082589608                       # number of overall (read+write) accesses (Count)
system.cpu.icache.overallAccesses::total  30082589608                       # number of overall (read+write) accesses (Count)
system.cpu.icache.demandMissRate::cpu.inst     0.000000                       # miss rate for demand accesses (Ratio)
system.cpu.icache.demandMissRate::total      0.000000                       # miss rate for demand accesses (Ratio)
system.cpu.icache.overallMissRate::cpu.inst     0.000000                       # miss rate for overall accesses (Ratio)
system.cpu.icache.overallMissRate::total     0.000000                       # miss rate for overall accesses (Ratio)
system.cpu.icache.demandAvgMissLatency::cpu.inst 72080.541916                       # average overall miss latency ((Cycle/Count))
system.cpu.icache.demandAvgMissLatency::total 72080.541916                       # average overall miss latency ((Cycle/Count))
system.cpu.icache.overallAvgMissLatency::cpu.inst 72080.541916                       # average overall miss latency ((Cycle/Count))
system.cpu.icache.overallAvgMissLatency::total 72080.541916                       # average overall miss latency ((Cycle/Count))
system.cpu.icache.blockedCycles::no_mshrs            0                       # number of cycles access was blocked (Cycle)
system.cpu.icache.blockedCycles::no_targets            0                       # number of cycles access was blocked (Cycle)
system.cpu.icache.blockedCauses::no_mshrs            0                       # number of times access was blocked (Count)
system.cpu.icache.blockedCauses::no_targets            0                       # number of times access was blocked (Count)
system.cpu.icache.avgBlocked::no_mshrs            nan                       # average number of cycles each access was blocked ((Cycle/Count))
system.cpu.icache.avgBlocked::no_targets          nan                       # average number of cycles each access was blocked ((Cycle/Count))
system.cpu.icache.writebacks::writebacks          158                       # number of writebacks (Count)
system.cpu.icache.writebacks::total               158                       # number of writebacks (Count)
system.cpu.icache.demandMshrMisses::cpu.inst          668                       # number of demand (read+write) MSHR misses (Count)
system.cpu.icache.demandMshrMisses::total          668                       # number of demand (read+write) MSHR misses (Count)
system.cpu.icache.overallMshrMisses::cpu.inst          668                       # number of overall MSHR misses (Count)
system.cpu.icache.overallMshrMisses::total          668                       # number of overall MSHR misses (Count)
system.cpu.icache.demandMshrMissLatency::cpu.inst     47704914                       # number of demand (read+write) MSHR miss ticks (Tick)
system.cpu.icache.demandMshrMissLatency::total     47704914                       # number of demand (read+write) MSHR miss ticks (Tick)
system.cpu.icache.overallMshrMissLatency::cpu.inst     47704914                       # number of overall MSHR miss ticks (Tick)
system.cpu.icache.overallMshrMissLatency::total     47704914                       # number of overall MSHR miss ticks (Tick)
system.cpu.icache.demandMshrMissRate::cpu.inst     0.000000                       # mshr miss ratio for demand accesses (Ratio)
system.cpu.icache.demandMshrMissRate::total     0.000000                       # mshr miss ratio for demand accesses (Ratio)
system.cpu.icache.overallMshrMissRate::cpu.inst     0.000000                       # mshr miss ratio for overall accesses (Ratio)
system.cpu.icache.overallMshrMissRate::total     0.000000                       # mshr miss ratio for overall accesses (Ratio)
system.cpu.icache.demandAvgMshrMissLatency::cpu.inst 71414.541916                       # average overall mshr miss latency ((Cycle/Count))
system.cpu.icache.demandAvgMshrMissLatency::total 71414.541916                       # average overall mshr miss latency ((Cycle/Count))
system.cpu.icache.overallAvgMshrMissLatency::cpu.inst 71414.541916                       # average overall mshr miss latency ((Cycle/Count))
system.cpu.icache.overallAvgMshrMissLatency::total 71414.541916                       # average overall mshr miss latency ((Cycle/Count))
system.cpu.icache.replacements                    158                       # number of replacements (Count)
system.cpu.icache.ReadReq.hits::cpu.inst  30082588940                       # number of ReadReq hits (Count)
system.cpu.icache.ReadReq.hits::total     30082588940                       # number of ReadReq hits (Count)
system.cpu.icache.ReadReq.misses::cpu.inst          668                       # number of ReadReq misses (Count)
system.cpu.icache.ReadReq.misses::total           668                       # number of ReadReq misses (Count)
system.cpu.icache.ReadReq.missLatency::cpu.inst     48149802                       # number of ReadReq miss ticks (Tick)
system.cpu.icache.ReadReq.missLatency::total     48149802                       # number of ReadReq miss ticks (Tick)
system.cpu.icache.ReadReq.accesses::cpu.inst  30082589608                       # number of ReadReq accesses(hits+misses) (Count)
system.cpu.icache.ReadReq.accesses::total  30082589608                       # number of ReadReq accesses(hits+misses) (Count)
system.cpu.icache.ReadReq.missRate::cpu.inst     0.000000                       # miss rate for ReadReq accesses (Ratio)
system.cpu.icache.ReadReq.missRate::total     0.000000                       # miss rate for ReadReq accesses (Ratio)
system.cpu.icache.ReadReq.avgMissLatency::cpu.inst 72080.541916                       # average ReadReq miss latency ((Tick/Count))
system.cpu.icache.ReadReq.avgMissLatency::total 72080.541916                       # average ReadReq miss latency ((Tick/Count))
system.cpu.icache.ReadReq.mshrMisses::cpu.inst          668                       # number of ReadReq MSHR misses (Count)
system.cpu.icache.ReadReq.mshrMisses::total          668                       # number of ReadReq MSHR misses (Count)
system.cpu.icache.ReadReq.mshrMissLatency::cpu.inst     47704914                       # number of ReadReq MSHR miss ticks (Tick)
system.cpu.icache.ReadReq.mshrMissLatency::total     47704914                       # number of ReadReq MSHR miss ticks (Tick)
system.cpu.icache.ReadReq.mshrMissRate::cpu.inst     0.000000                       # mshr miss rate for ReadReq accesses (Ratio)
system.cpu.icache.ReadReq.mshrMissRate::total     0.000000                       # mshr miss rate for ReadReq accesses (Ratio)
system.cpu.icache.ReadReq.avgMshrMissLatency::cpu.inst 71414.541916                       # average ReadReq mshr miss latency ((Tick/Count))
system.cpu.icache.ReadReq.avgMshrMissLatency::total 71414.541916                       # average ReadReq mshr miss latency ((Tick/Count))
system.cpu.icache.power_state.pwrStateResidencyTicks::UNDEFINED 30338789753088                       # Cumulative time (in ticks) in various power states (Tick)
system.cpu.icache.tags.tagsInUse           486.475626                       # Average ticks per tags in use ((Tick/Count))
system.cpu.icache.tags.totalRefs          17197687720                       # Total number of references to valid blocks. (Count)
system.cpu.icache.tags.sampledRefs                668                       # Sample count of references to valid blocks. (Count)
system.cpu.icache.tags.avgRefs           25745041.497006                       # Average number of references to valid blocks. ((Count/Count))
system.cpu.icache.tags.warmupTick              298701                       # The tick when the warmup percentage was hit. (Tick)
system.cpu.icache.tags.occupancies::cpu.inst   486.475626                       # Average occupied blocks per tick, per requestor ((Count/Tick))
system.cpu.icache.tags.avgOccs::cpu.inst     0.950148                       # Average percentage of cache occupancy ((Ratio/Tick))
system.cpu.icache.tags.avgOccs::total        0.950148                       # Average percentage of cache occupancy ((Ratio/Tick))
system.cpu.icache.tags.occupanciesTaskId::1024          509                       # Occupied blocks per task id (Count)
system.cpu.icache.tags.ageTaskId_1024::1            4                       # Occupied blocks per task id, per block age (Count)
system.cpu.icache.tags.ageTaskId_1024::2           33                       # Occupied blocks per task id, per block age (Count)
system.cpu.icache.tags.ageTaskId_1024::4          472                       # Occupied blocks per task id, per block age (Count)
system.cpu.icache.tags.ratioOccsTaskId::1024     0.994141                       # Ratio of occupied blocks and all blocks, per task id (Ratio)
system.cpu.icache.tags.tagAccesses       240660717532                       # Number of tag accesses (Count)
system.cpu.icache.tags.dataAccesses      240660717532                       # Number of data accesses (Count)
system.cpu.icache.tags.power_state.pwrStateResidencyTicks::UNDEFINED 30338789753088                       # Cumulative time (in ticks) in various power states (Tick)
system.cpu.interrupts.clk_domain.clock           5328                       # Clock period in ticks (Tick)
system.cpu.itb_walker_cache.demandHits::cpu.mmu.itb.walker           10                       # number of demand (read+write) hits (Count)
system.cpu.itb_walker_cache.demandHits::total           10                       # number of demand (read+write) hits (Count)
system.cpu.itb_walker_cache.overallHits::cpu.mmu.itb.walker           10                       # number of overall hits (Count)
system.cpu.itb_walker_cache.overallHits::total           10                       # number of overall hits (Count)
system.cpu.itb_walker_cache.demandMisses::cpu.mmu.itb.walker           20                       # number of demand (read+write) misses (Count)
system.cpu.itb_walker_cache.demandMisses::total           20                       # number of demand (read+write) misses (Count)
system.cpu.itb_walker_cache.overallMisses::cpu.mmu.itb.walker           20                       # number of overall misses (Count)
system.cpu.itb_walker_cache.overallMisses::total           20                       # number of overall misses (Count)
system.cpu.itb_walker_cache.demandMissLatency::cpu.mmu.itb.walker       505494                       # number of demand (read+write) miss ticks (Tick)
system.cpu.itb_walker_cache.demandMissLatency::total       505494                       # number of demand (read+write) miss ticks (Tick)
system.cpu.itb_walker_cache.overallMissLatency::cpu.mmu.itb.walker       505494                       # number of overall miss ticks (Tick)
system.cpu.itb_walker_cache.overallMissLatency::total       505494                       # number of overall miss ticks (Tick)
system.cpu.itb_walker_cache.demandAccesses::cpu.mmu.itb.walker           30                       # number of demand (read+write) accesses (Count)
system.cpu.itb_walker_cache.demandAccesses::total           30                       # number of demand (read+write) accesses (Count)
system.cpu.itb_walker_cache.overallAccesses::cpu.mmu.itb.walker           30                       # number of overall (read+write) accesses (Count)
system.cpu.itb_walker_cache.overallAccesses::total           30                       # number of overall (read+write) accesses (Count)
system.cpu.itb_walker_cache.demandMissRate::cpu.mmu.itb.walker     0.666667                       # miss rate for demand accesses (Ratio)
system.cpu.itb_walker_cache.demandMissRate::total     0.666667                       # miss rate for demand accesses (Ratio)
system.cpu.itb_walker_cache.overallMissRate::cpu.mmu.itb.walker     0.666667                       # miss rate for overall accesses (Ratio)
system.cpu.itb_walker_cache.overallMissRate::total     0.666667                       # miss rate for overall accesses (Ratio)
system.cpu.itb_walker_cache.demandAvgMissLatency::cpu.mmu.itb.walker 25274.700000                       # average overall miss latency ((Cycle/Count))
system.cpu.itb_walker_cache.demandAvgMissLatency::total 25274.700000                       # average overall miss latency ((Cycle/Count))
system.cpu.itb_walker_cache.overallAvgMissLatency::cpu.mmu.itb.walker 25274.700000                       # average overall miss latency ((Cycle/Count))
system.cpu.itb_walker_cache.overallAvgMissLatency::total 25274.700000                       # average overall miss latency ((Cycle/Count))
system.cpu.itb_walker_cache.blockedCycles::no_mshrs            0                       # number of cycles access was blocked (Cycle)
system.cpu.itb_walker_cache.blockedCycles::no_targets            0                       # number of cycles access was blocked (Cycle)
system.cpu.itb_walker_cache.blockedCauses::no_mshrs            0                       # number of times access was blocked (Count)
system.cpu.itb_walker_cache.blockedCauses::no_targets            0                       # number of times access was blocked (Count)
system.cpu.itb_walker_cache.avgBlocked::no_mshrs          nan                       # average number of cycles each access was blocked ((Cycle/Count))
system.cpu.itb_walker_cache.avgBlocked::no_targets          nan                       # average number of cycles each access was blocked ((Cycle/Count))
system.cpu.itb_walker_cache.writebacks::writebacks            8                       # number of writebacks (Count)
system.cpu.itb_walker_cache.writebacks::total            8                       # number of writebacks (Count)
system.cpu.itb_walker_cache.demandMshrMisses::cpu.mmu.itb.walker           20                       # number of demand (read+write) MSHR misses (Count)
system.cpu.itb_walker_cache.demandMshrMisses::total           20                       # number of demand (read+write) MSHR misses (Count)
system.cpu.itb_walker_cache.overallMshrMisses::cpu.mmu.itb.walker           20                       # number of overall MSHR misses (Count)
system.cpu.itb_walker_cache.overallMshrMisses::total           20                       # number of overall MSHR misses (Count)
system.cpu.itb_walker_cache.demandMshrMissLatency::cpu.mmu.itb.walker       492174                       # number of demand (read+write) MSHR miss ticks (Tick)
system.cpu.itb_walker_cache.demandMshrMissLatency::total       492174                       # number of demand (read+write) MSHR miss ticks (Tick)
system.cpu.itb_walker_cache.overallMshrMissLatency::cpu.mmu.itb.walker       492174                       # number of overall MSHR miss ticks (Tick)
system.cpu.itb_walker_cache.overallMshrMissLatency::total       492174                       # number of overall MSHR miss ticks (Tick)
system.cpu.itb_walker_cache.demandMshrMissRate::cpu.mmu.itb.walker     0.666667                       # mshr miss ratio for demand accesses (Ratio)
system.cpu.itb_walker_cache.demandMshrMissRate::total     0.666667                       # mshr miss ratio for demand accesses (Ratio)
system.cpu.itb_walker_cache.overallMshrMissRate::cpu.mmu.itb.walker     0.666667                       # mshr miss ratio for overall accesses (Ratio)
system.cpu.itb_walker_cache.overallMshrMissRate::total     0.666667                       # mshr miss ratio for overall accesses (Ratio)
system.cpu.itb_walker_cache.demandAvgMshrMissLatency::cpu.mmu.itb.walker 24608.700000                       # average overall mshr miss latency ((Cycle/Count))
system.cpu.itb_walker_cache.demandAvgMshrMissLatency::total 24608.700000                       # average overall mshr miss latency ((Cycle/Count))
system.cpu.itb_walker_cache.overallAvgMshrMissLatency::cpu.mmu.itb.walker 24608.700000                       # average overall mshr miss latency ((Cycle/Count))
system.cpu.itb_walker_cache.overallAvgMshrMissLatency::total 24608.700000                       # average overall mshr miss latency ((Cycle/Count))
system.cpu.itb_walker_cache.replacements           12                       # number of replacements (Count)
system.cpu.itb_walker_cache.ReadReq.misses::cpu.mmu.itb.walker           20                       # number of ReadReq misses (Count)
system.cpu.itb_walker_cache.ReadReq.misses::total           20                       # number of ReadReq misses (Count)
system.cpu.itb_walker_cache.ReadReq.missLatency::cpu.mmu.itb.walker       505494                       # number of ReadReq miss ticks (Tick)
system.cpu.itb_walker_cache.ReadReq.missLatency::total       505494                       # number of ReadReq miss ticks (Tick)
system.cpu.itb_walker_cache.ReadReq.accesses::cpu.mmu.itb.walker           20                       # number of ReadReq accesses(hits+misses) (Count)
system.cpu.itb_walker_cache.ReadReq.accesses::total           20                       # number of ReadReq accesses(hits+misses) (Count)
system.cpu.itb_walker_cache.ReadReq.missRate::cpu.mmu.itb.walker            1                       # miss rate for ReadReq accesses (Ratio)
system.cpu.itb_walker_cache.ReadReq.missRate::total            1                       # miss rate for ReadReq accesses (Ratio)
system.cpu.itb_walker_cache.ReadReq.avgMissLatency::cpu.mmu.itb.walker 25274.700000                       # average ReadReq miss latency ((Tick/Count))
system.cpu.itb_walker_cache.ReadReq.avgMissLatency::total 25274.700000                       # average ReadReq miss latency ((Tick/Count))
system.cpu.itb_walker_cache.ReadReq.mshrMisses::cpu.mmu.itb.walker           20                       # number of ReadReq MSHR misses (Count)
system.cpu.itb_walker_cache.ReadReq.mshrMisses::total           20                       # number of ReadReq MSHR misses (Count)
system.cpu.itb_walker_cache.ReadReq.mshrMissLatency::cpu.mmu.itb.walker       492174                       # number of ReadReq MSHR miss ticks (Tick)
system.cpu.itb_walker_cache.ReadReq.mshrMissLatency::total       492174                       # number of ReadReq MSHR miss ticks (Tick)
system.cpu.itb_walker_cache.ReadReq.mshrMissRate::cpu.mmu.itb.walker            1                       # mshr miss rate for ReadReq accesses (Ratio)
system.cpu.itb_walker_cache.ReadReq.mshrMissRate::total            1                       # mshr miss rate for ReadReq accesses (Ratio)
system.cpu.itb_walker_cache.ReadReq.avgMshrMissLatency::cpu.mmu.itb.walker 24608.700000                       # average ReadReq mshr miss latency ((Tick/Count))
system.cpu.itb_walker_cache.ReadReq.avgMshrMissLatency::total 24608.700000                       # average ReadReq mshr miss latency ((Tick/Count))
system.cpu.itb_walker_cache.WriteReq.hits::cpu.mmu.itb.walker           10                       # number of WriteReq hits (Count)
system.cpu.itb_walker_cache.WriteReq.hits::total           10                       # number of WriteReq hits (Count)
system.cpu.itb_walker_cache.WriteReq.accesses::cpu.mmu.itb.walker           10                       # number of WriteReq accesses(hits+misses) (Count)
system.cpu.itb_walker_cache.WriteReq.accesses::total           10                       # number of WriteReq accesses(hits+misses) (Count)
system.cpu.itb_walker_cache.power_state.pwrStateResidencyTicks::UNDEFINED 30338789753088                       # Cumulative time (in ticks) in various power states (Tick)
system.cpu.itb_walker_cache.tags.tagsInUse     1.998497                       # Average ticks per tags in use ((Tick/Count))
system.cpu.itb_walker_cache.tags.totalRefs           30                       # Total number of references to valid blocks. (Count)
system.cpu.itb_walker_cache.tags.sampledRefs           20                       # Sample count of references to valid blocks. (Count)
system.cpu.itb_walker_cache.tags.avgRefs     1.500000                       # Average number of references to valid blocks. ((Count/Count))
system.cpu.itb_walker_cache.tags.warmupTick        84915                       # The tick when the warmup percentage was hit. (Tick)
system.cpu.itb_walker_cache.tags.occupancies::cpu.mmu.itb.walker     1.998497                       # Average occupied blocks per tick, per requestor ((Count/Tick))
system.cpu.itb_walker_cache.tags.avgOccs::cpu.mmu.itb.walker     0.124906                       # Average percentage of cache occupancy ((Ratio/Tick))
system.cpu.itb_walker_cache.tags.avgOccs::total     0.124906                       # Average percentage of cache occupancy ((Ratio/Tick))
system.cpu.itb_walker_cache.tags.occupanciesTaskId::1024            2                       # Occupied blocks per task id (Count)
system.cpu.itb_walker_cache.tags.ageTaskId_1024::2            2                       # Occupied blocks per task id, per block age (Count)
system.cpu.itb_walker_cache.tags.ratioOccsTaskId::1024     0.125000                       # Ratio of occupied blocks and all blocks, per task id (Ratio)
system.cpu.itb_walker_cache.tags.tagAccesses           80                       # Number of tag accesses (Count)
system.cpu.itb_walker_cache.tags.dataAccesses           80                       # Number of data accesses (Count)
system.cpu.itb_walker_cache.tags.power_state.pwrStateResidencyTicks::UNDEFINED 30338789753088                       # Cumulative time (in ticks) in various power states (Tick)
system.cpu.l2cache.demandHits::cpu.mmu.dtb.walker        24897                       # number of demand (read+write) hits (Count)
system.cpu.l2cache.demandHits::cpu.mmu.itb.walker            9                       # number of demand (read+write) hits (Count)
system.cpu.l2cache.demandHits::cpu.inst             2                       # number of demand (read+write) hits (Count)
system.cpu.l2cache.demandHits::cpu.data     398265015                       # number of demand (read+write) hits (Count)
system.cpu.l2cache.demandHits::total        398289923                       # number of demand (read+write) hits (Count)
system.cpu.l2cache.overallHits::cpu.mmu.dtb.walker        24897                       # number of overall hits (Count)
system.cpu.l2cache.overallHits::cpu.mmu.itb.walker            9                       # number of overall hits (Count)
system.cpu.l2cache.overallHits::cpu.inst            2                       # number of overall hits (Count)
system.cpu.l2cache.overallHits::cpu.data    398265015                       # number of overall hits (Count)
system.cpu.l2cache.overallHits::total       398289923                       # number of overall hits (Count)
system.cpu.l2cache.demandMisses::cpu.mmu.dtb.walker         4774                       # number of demand (read+write) misses (Count)
system.cpu.l2cache.demandMisses::cpu.mmu.itb.walker            7                       # number of demand (read+write) misses (Count)
system.cpu.l2cache.demandMisses::cpu.inst          666                       # number of demand (read+write) misses (Count)
system.cpu.l2cache.demandMisses::cpu.data      2751967                       # number of demand (read+write) misses (Count)
system.cpu.l2cache.demandMisses::total        2757414                       # number of demand (read+write) misses (Count)
system.cpu.l2cache.overallMisses::cpu.mmu.dtb.walker         4774                       # number of overall misses (Count)
system.cpu.l2cache.overallMisses::cpu.mmu.itb.walker            7                       # number of overall misses (Count)
system.cpu.l2cache.overallMisses::cpu.inst          666                       # number of overall misses (Count)
system.cpu.l2cache.overallMisses::cpu.data      2751967                       # number of overall misses (Count)
system.cpu.l2cache.overallMisses::total       2757414                       # number of overall misses (Count)
system.cpu.l2cache.demandMissLatency::cpu.mmu.dtb.walker    319513500                       # number of demand (read+write) miss ticks (Tick)
system.cpu.l2cache.demandMissLatency::cpu.mmu.itb.walker       437229                       # number of demand (read+write) miss ticks (Tick)
system.cpu.l2cache.demandMissLatency::cpu.inst     47252700                       # number of demand (read+write) miss ticks (Tick)
system.cpu.l2cache.demandMissLatency::cpu.data 214661766024                       # number of demand (read+write) miss ticks (Tick)
system.cpu.l2cache.demandMissLatency::total 215028969453                       # number of demand (read+write) miss ticks (Tick)
system.cpu.l2cache.overallMissLatency::cpu.mmu.dtb.walker    319513500                       # number of overall miss ticks (Tick)
system.cpu.l2cache.overallMissLatency::cpu.mmu.itb.walker       437229                       # number of overall miss ticks (Tick)
system.cpu.l2cache.overallMissLatency::cpu.inst     47252700                       # number of overall miss ticks (Tick)
system.cpu.l2cache.overallMissLatency::cpu.data 214661766024                       # number of overall miss ticks (Tick)
system.cpu.l2cache.overallMissLatency::total 215028969453                       # number of overall miss ticks (Tick)
system.cpu.l2cache.demandAccesses::cpu.mmu.dtb.walker        29671                       # number of demand (read+write) accesses (Count)
system.cpu.l2cache.demandAccesses::cpu.mmu.itb.walker           16                       # number of demand (read+write) accesses (Count)
system.cpu.l2cache.demandAccesses::cpu.inst          668                       # number of demand (read+write) accesses (Count)
system.cpu.l2cache.demandAccesses::cpu.data    401016982                       # number of demand (read+write) accesses (Count)
system.cpu.l2cache.demandAccesses::total    401047337                       # number of demand (read+write) accesses (Count)
system.cpu.l2cache.overallAccesses::cpu.mmu.dtb.walker        29671                       # number of overall (read+write) accesses (Count)
system.cpu.l2cache.overallAccesses::cpu.mmu.itb.walker           16                       # number of overall (read+write) accesses (Count)
system.cpu.l2cache.overallAccesses::cpu.inst          668                       # number of overall (read+write) accesses (Count)
system.cpu.l2cache.overallAccesses::cpu.data    401016982                       # number of overall (read+write) accesses (Count)
system.cpu.l2cache.overallAccesses::total    401047337                       # number of overall (read+write) accesses (Count)
system.cpu.l2cache.demandMissRate::cpu.mmu.dtb.walker     0.160898                       # miss rate for demand accesses (Ratio)
system.cpu.l2cache.demandMissRate::cpu.mmu.itb.walker     0.437500                       # miss rate for demand accesses (Ratio)
system.cpu.l2cache.demandMissRate::cpu.inst     0.997006                       # miss rate for demand accesses (Ratio)
system.cpu.l2cache.demandMissRate::cpu.data     0.006862                       # miss rate for demand accesses (Ratio)
system.cpu.l2cache.demandMissRate::total     0.006876                       # miss rate for demand accesses (Ratio)
system.cpu.l2cache.overallMissRate::cpu.mmu.dtb.walker     0.160898                       # miss rate for overall accesses (Ratio)
system.cpu.l2cache.overallMissRate::cpu.mmu.itb.walker     0.437500                       # miss rate for overall accesses (Ratio)
system.cpu.l2cache.overallMissRate::cpu.inst     0.997006                       # miss rate for overall accesses (Ratio)
system.cpu.l2cache.overallMissRate::cpu.data     0.006862                       # miss rate for overall accesses (Ratio)
system.cpu.l2cache.overallMissRate::total     0.006876                       # miss rate for overall accesses (Ratio)
system.cpu.l2cache.demandAvgMissLatency::cpu.mmu.dtb.walker 66927.838291                       # average overall miss latency ((Cycle/Count))
system.cpu.l2cache.demandAvgMissLatency::cpu.mmu.itb.walker 62461.285714                       # average overall miss latency ((Cycle/Count))
system.cpu.l2cache.demandAvgMissLatency::cpu.inst        70950                       # average overall miss latency ((Cycle/Count))
system.cpu.l2cache.demandAvgMissLatency::cpu.data 78003.030568                       # average overall miss latency ((Cycle/Count))
system.cpu.l2cache.demandAvgMissLatency::total 77982.112752                       # average overall miss latency ((Cycle/Count))
system.cpu.l2cache.overallAvgMissLatency::cpu.mmu.dtb.walker 66927.838291                       # average overall miss latency ((Cycle/Count))
system.cpu.l2cache.overallAvgMissLatency::cpu.mmu.itb.walker 62461.285714                       # average overall miss latency ((Cycle/Count))
system.cpu.l2cache.overallAvgMissLatency::cpu.inst        70950                       # average overall miss latency ((Cycle/Count))
system.cpu.l2cache.overallAvgMissLatency::cpu.data 78003.030568                       # average overall miss latency ((Cycle/Count))
system.cpu.l2cache.overallAvgMissLatency::total 77982.112752                       # average overall miss latency ((Cycle/Count))
system.cpu.l2cache.blockedCycles::no_mshrs            0                       # number of cycles access was blocked (Cycle)
system.cpu.l2cache.blockedCycles::no_targets            0                       # number of cycles access was blocked (Cycle)
system.cpu.l2cache.blockedCauses::no_mshrs            0                       # number of times access was blocked (Count)
system.cpu.l2cache.blockedCauses::no_targets            0                       # number of times access was blocked (Count)
system.cpu.l2cache.avgBlocked::no_mshrs           nan                       # average number of cycles each access was blocked ((Cycle/Count))
system.cpu.l2cache.avgBlocked::no_targets          nan                       # average number of cycles each access was blocked ((Cycle/Count))
system.cpu.l2cache.writebacks::writebacks       246245                       # number of writebacks (Count)
system.cpu.l2cache.writebacks::total           246245                       # number of writebacks (Count)
system.cpu.l2cache.demandMshrMisses::cpu.mmu.dtb.walker         4774                       # number of demand (read+write) MSHR misses (Count)
system.cpu.l2cache.demandMshrMisses::cpu.mmu.itb.walker            7                       # number of demand (read+write) MSHR misses (Count)
system.cpu.l2cache.demandMshrMisses::cpu.inst          666                       # number of demand (read+write) MSHR misses (Count)
system.cpu.l2cache.demandMshrMisses::cpu.data      2751967                       # number of demand (read+write) MSHR misses (Count)
system.cpu.l2cache.demandMshrMisses::total      2757414                       # number of demand (read+write) MSHR misses (Count)
system.cpu.l2cache.overallMshrMisses::cpu.mmu.dtb.walker         4774                       # number of overall MSHR misses (Count)
system.cpu.l2cache.overallMshrMisses::cpu.mmu.itb.walker            7                       # number of overall MSHR misses (Count)
system.cpu.l2cache.overallMshrMisses::cpu.inst          666                       # number of overall MSHR misses (Count)
system.cpu.l2cache.overallMshrMisses::cpu.data      2751967                       # number of overall MSHR misses (Count)
system.cpu.l2cache.overallMshrMisses::total      2757414                       # number of overall MSHR misses (Count)
system.cpu.l2cache.overallMshrUncacheable::cpu.data        25681                       # number of overall MSHR uncacheable misses (Count)
system.cpu.l2cache.overallMshrUncacheable::total        25681                       # number of overall MSHR uncacheable misses (Count)
system.cpu.l2cache.demandMshrMissLatency::cpu.mmu.dtb.walker    305205822                       # number of demand (read+write) MSHR miss ticks (Tick)
system.cpu.l2cache.demandMshrMissLatency::cpu.mmu.itb.walker       416250                       # number of demand (read+write) MSHR miss ticks (Tick)
system.cpu.l2cache.demandMshrMissLatency::cpu.inst     45256698                       # number of demand (read+write) MSHR miss ticks (Tick)
system.cpu.l2cache.demandMshrMissLatency::cpu.data 206414120925                       # number of demand (read+write) MSHR miss ticks (Tick)
system.cpu.l2cache.demandMshrMissLatency::total 206764999695                       # number of demand (read+write) MSHR miss ticks (Tick)
system.cpu.l2cache.overallMshrMissLatency::cpu.mmu.dtb.walker    305205822                       # number of overall MSHR miss ticks (Tick)
system.cpu.l2cache.overallMshrMissLatency::cpu.mmu.itb.walker       416250                       # number of overall MSHR miss ticks (Tick)
[...]
system.mem_ctrls.nvm.bytesPerBank::1920-1935           28      0.00%     99.96% # Bytes read within a bank before loading new bank (Byte)
system.mem_ctrls.nvm.bytesPerBank::1984-1999           27      0.00%     99.96% # Bytes read within a bank before loading new bank (Byte)
system.mem_ctrls.nvm.bytesPerBank::2048-2063           23      0.00%     99.96% # Bytes read within a bank before loading new bank (Byte)
system.mem_ctrls.nvm.bytesPerBank::2112-2127           26      0.00%     99.97% # Bytes read within a bank before loading new bank (Byte)
system.mem_ctrls.nvm.bytesPerBank::2176-2191           19      0.00%     99.97% # Bytes read within a bank before loading new bank (Byte)
system.mem_ctrls.nvm.bytesPerBank::2240-2255           26      0.00%     99.97% # Bytes read within a bank before loading new bank (Byte)
system.mem_ctrls.nvm.bytesPerBank::2304-2319           18      0.00%     99.98% # Bytes read within a bank before loading new bank (Byte)
system.mem_ctrls.nvm.bytesPerBank::2368-2383           14      0.00%     99.98% # Bytes read within a bank before loading new bank (Byte)
system.mem_ctrls.nvm.bytesPerBank::2432-2447           16      0.00%     99.98% # Bytes read within a bank before loading new bank (Byte)
system.mem_ctrls.nvm.bytesPerBank::2496-2511           14      0.00%     99.98% # Bytes read within a bank before loading new bank (Byte)
system.mem_ctrls.nvm.bytesPerBank::2560-2575           11      0.00%     99.98% # Bytes read within a bank before loading new bank (Byte)
system.mem_ctrls.nvm.bytesPerBank::2624-2639           12      0.00%     99.98% # Bytes read within a bank before loading new bank (Byte)
system.mem_ctrls.nvm.bytesPerBank::2688-2703           12      0.00%     99.99% # Bytes read within a bank before loading new bank (Byte)
system.mem_ctrls.nvm.bytesPerBank::2752-2767           14      0.00%     99.99% # Bytes read within a bank before loading new bank (Byte)
system.mem_ctrls.nvm.bytesPerBank::2816-2831           14      0.00%     99.99% # Bytes read within a bank before loading new bank (Byte)
system.mem_ctrls.nvm.bytesPerBank::2880-2895           12      0.00%     99.99% # Bytes read within a bank before loading new bank (Byte)
system.mem_ctrls.nvm.bytesPerBank::2944-2959            9      0.00%     99.99% # Bytes read within a bank before loading new bank (Byte)
system.mem_ctrls.nvm.bytesPerBank::3008-3023           11      0.00%     99.99% # Bytes read within a bank before loading new bank (Byte)
system.mem_ctrls.nvm.bytesPerBank::3072-3087           10      0.00%    100.00% # Bytes read within a bank before loading new bank (Byte)
system.mem_ctrls.nvm.bytesPerBank::3136-3151            2      0.00%    100.00% # Bytes read within a bank before loading new bank (Byte)
system.mem_ctrls.nvm.bytesPerBank::3200-3215            7      0.00%    100.00% # Bytes read within a bank before loading new bank (Byte)
system.mem_ctrls.nvm.bytesPerBank::3264-3279            8      0.00%    100.00% # Bytes read within a bank before loading new bank (Byte)
system.mem_ctrls.nvm.bytesPerBank::3328-3343            3      0.00%    100.00% # Bytes read within a bank before loading new bank (Byte)
system.mem_ctrls.nvm.bytesPerBank::3392-3407            4      0.00%    100.00% # Bytes read within a bank before loading new bank (Byte)
system.mem_ctrls.nvm.bytesPerBank::3456-3471            4      0.00%    100.00% # Bytes read within a bank before loading new bank (Byte)
system.mem_ctrls.nvm.bytesPerBank::3520-3535            5      0.00%    100.00% # Bytes read within a bank before loading new bank (Byte)
system.mem_ctrls.nvm.bytesPerBank::3584-3599            1      0.00%    100.00% # Bytes read within a bank before loading new bank (Byte)
system.mem_ctrls.nvm.bytesPerBank::3712-3727            2      0.00%    100.00% # Bytes read within a bank before loading new bank (Byte)
system.mem_ctrls.nvm.bytesPerBank::total       752459                       # Bytes read within a bank before loading new bank (Byte)
system.mem_ctrls.nvm.power_state.pwrStateResidencyTicks::UNDEFINED 30338789753088                       # Cumulative time (in ticks) in various power states (Tick)
system.mem_ctrls.power_state.pwrStateResidencyTicks::UNDEFINED 30338789753088                       # Cumulative time (in ticks) in various power states (Tick)
system.membus.transDist::ReadReq                  767                       # Transaction distribution (Count)
system.membus.transDist::ReadResp             2351470                       # Transaction distribution (Count)
system.membus.transDist::WriteReq               24914                       # Transaction distribution (Count)
system.membus.transDist::WriteResp              24914                       # Transaction distribution (Count)
system.membus.transDist::WritebackDirty        222250                       # Transaction distribution (Count)
system.membus.transDist::WriteClean            880122                       # Transaction distribution (Count)
system.membus.transDist::CleanEvict           1532294                       # Transaction distribution (Count)
system.membus.transDist::UpgradeReq            184101                       # Transaction distribution (Count)
system.membus.transDist::ReadExReq             350612                       # Transaction distribution (Count)
system.membus.transDist::ReadExResp            350612                       # Transaction distribution (Count)
system.membus.transDist::ReadSharedReq        2350703                       # Transaction distribution (Count)
system.membus.transDist::CleanInvalidReq      1215527                       # Transaction distribution (Count)
system.membus.pktCount_system.l3.mem_side_port::system.bridge.cpu_side_port         2992                       # Packet count per connected requestor and responder (Count)
system.membus.pktCount_system.l3.mem_side_port::system.cpu.interrupts.pio        48370                       # Packet count per connected requestor and responder (Count)
system.membus.pktCount_system.l3.mem_side_port::system.mem_ctrls.port      9436924                       # Packet count per connected requestor and responder (Count)
system.membus.pktCount_system.l3.mem_side_port::total      9488286                       # Packet count per connected requestor and responder (Count)
system.membus.pktCount::total                 9488286                       # Packet count per connected requestor and responder (Count)
system.membus.pktSize_system.l3.mem_side_port::system.bridge.cpu_side_port         1521                       # Cumulative packet size per connected requestor and responder (Byte)
system.membus.pktSize_system.l3.mem_side_port::system.cpu.interrupts.pio        96740                       # Cumulative packet size per connected requestor and responder (Byte)
system.membus.pktSize_system.l3.mem_side_port::system.mem_ctrls.port    243435968                       # Cumulative packet size per connected requestor and responder (Byte)
system.membus.pktSize_system.l3.mem_side_port::total    243534229                       # Cumulative packet size per connected requestor and responder (Byte)
system.membus.pktSize::total                243534229                       # Cumulative packet size per connected requestor and responder (Byte)
system.membus.snoops                           184039                       # Total snoops (Count)
system.membus.snoopTraffic                          0                       # Total snoop traffic (Byte)
system.membus.snoopFanout::samples            4126624                       # Request fanout histogram (Count)
system.membus.snoopFanout::mean                     0                       # Request fanout histogram (Count)
system.membus.snoopFanout::stdev                    0                       # Request fanout histogram (Count)
system.membus.snoopFanout::underflows               0      0.00%      0.00% # Request fanout histogram (Count)
system.membus.snoopFanout::0                  4126624    100.00%    100.00% # Request fanout histogram (Count)
system.membus.snoopFanout::1                        0      0.00%    100.00% # Request fanout histogram (Count)
system.membus.snoopFanout::2                        0      0.00%    100.00% # Request fanout histogram (Count)
system.membus.snoopFanout::overflows                0      0.00%    100.00% # Request fanout histogram (Count)
system.membus.snoopFanout::min_value                0                       # Request fanout histogram (Count)
system.membus.snoopFanout::max_value                0                       # Request fanout histogram (Count)
system.membus.snoopFanout::total              4126624                       # Request fanout histogram (Count)
system.membus.badaddr_responder.power_state.pwrStateResidencyTicks::UNDEFINED 30338789753088                       # Cumulative time (in ticks) in various power states (Tick)
system.membus.power_state.pwrStateResidencyTicks::UNDEFINED 30338789753088                       # Cumulative time (in ticks) in various power states (Tick)
system.membus.reqLayer0.occupancy             3333280                       # Layer occupancy (ticks) (Tick)
system.membus.reqLayer0.utilization               0.0                       # Layer utilization (Ratio)
system.membus.reqLayer1.occupancy            61817100                       # Layer occupancy (ticks) (Tick)
system.membus.reqLayer1.utilization               0.0                       # Layer utilization (Ratio)
system.membus.reqLayer3.occupancy         13276958608                       # Layer occupancy (ticks) (Tick)
system.membus.reqLayer3.utilization               0.0                       # Layer utilization (Ratio)
system.membus.respLayer3.occupancy        13906939544                       # Layer occupancy (ticks) (Tick)
system.membus.respLayer3.utilization              0.0                       # Layer utilization (Ratio)
system.membus.snoop_filter.totRequests        5855487                       # Total number of requests made to the snoop filter. (Count)
system.membus.snoop_filter.hitSingleRequests      2852168                       # Number of requests hitting in the snoop filter with a single holder of the requested data. (Count)
system.membus.snoop_filter.hitMultiRequests            0                       # Number of requests hitting in the snoop filter with multiple (>1) holders of the requested data. (Count)
system.membus.snoop_filter.totSnoops                0                       # Total number of snoops made to the snoop filter. (Count)
system.membus.snoop_filter.hitSingleSnoops            0                       # Number of snoops hitting in the snoop filter with a single holder of the requested data. (Count)
system.membus.snoop_filter.hitMultiSnoops            0                       # Number of snoops hitting in the snoop filter with multiple (>1) holders of the requested data. (Count)
system.pc.bad_addr.power_state.pwrStateResidencyTicks::UNDEFINED 30338789753088                       # Cumulative time (in ticks) in various power states (Tick)
system.pc.com_1.power_state.pwrStateResidencyTicks::UNDEFINED 30338789753088                       # Cumulative time (in ticks) in various power states (Tick)
system.pc.default_bus.power_state.pwrStateResidencyTicks::UNDEFINED 30338789753088                       # Cumulative time (in ticks) in various power states (Tick)
system.pc.empty_isa.power_state.pwrStateResidencyTicks::UNDEFINED 30338789753088                       # Cumulative time (in ticks) in various power states (Tick)
system.pc.fake_com_2.power_state.pwrStateResidencyTicks::UNDEFINED 30338789753088                       # Cumulative time (in ticks) in various power states (Tick)
system.pc.fake_com_3.power_state.pwrStateResidencyTicks::UNDEFINED 30338789753088                       # Cumulative time (in ticks) in various power states (Tick)
system.pc.fake_com_4.power_state.pwrStateResidencyTicks::UNDEFINED 30338789753088                       # Cumulative time (in ticks) in various power states (Tick)
system.pc.fake_floppy.power_state.pwrStateResidencyTicks::UNDEFINED 30338789753088                       # Cumulative time (in ticks) in various power states (Tick)
system.pc.pci_host.power_state.pwrStateResidencyTicks::UNDEFINED 30338789753088                       # Cumulative time (in ticks) in various power states (Tick)
system.pc.south_bridge.cmos.power_state.pwrStateResidencyTicks::UNDEFINED 30338789753088                       # Cumulative time (in ticks) in various power states (Tick)
system.pc.south_bridge.dma1.power_state.pwrStateResidencyTicks::UNDEFINED 30338789753088                       # Cumulative time (in ticks) in various power states (Tick)
system.pc.south_bridge.ide.disks.IdeDisk.dmaReadFullPages            0                       # Number of full page size DMA reads (not PRD). (Count)
system.pc.south_bridge.ide.disks.IdeDisk.dmaReadBytes            0                       # Number of bytes transfered via DMA reads (not PRD). (Byte)
system.pc.south_bridge.ide.disks.IdeDisk.dmaReadTxs            0                       # Number of DMA read transactions (not PRD). (Count)
system.pc.south_bridge.ide.disks.IdeDisk.dmaWriteFullPages            0                       # Number of full page size DMA writes. (Count)
system.pc.south_bridge.ide.disks.IdeDisk.dmaWriteBytes            0                       # Number of bytes transfered via DMA writes. (Byte)
system.pc.south_bridge.ide.disks.IdeDisk.dmaWriteTxs            0                       # Number of DMA write transactions. (Count)
system.pc.south_bridge.ide.power_state.pwrStateResidencyTicks::UNDEFINED 30338789753088                       # Cumulative time (in ticks) in various power states (Tick)
system.pc.south_bridge.io_apic.power_state.pwrStateResidencyTicks::UNDEFINED 30338789753088                       # Cumulative time (in ticks) in various power states (Tick)
system.pc.south_bridge.keyboard.power_state.pwrStateResidencyTicks::UNDEFINED 30338789753088                       # Cumulative time (in ticks) in various power states (Tick)
system.pc.south_bridge.pic1.power_state.pwrStateResidencyTicks::UNDEFINED 30338789753088                       # Cumulative time (in ticks) in various power states (Tick)
system.pc.south_bridge.pic2.power_state.pwrStateResidencyTicks::UNDEFINED 30338789753088                       # Cumulative time (in ticks) in various power states (Tick)
system.pc.south_bridge.pit.power_state.pwrStateResidencyTicks::UNDEFINED 30338789753088                       # Cumulative time (in ticks) in various power states (Tick)
system.pc.south_bridge.speaker.power_state.pwrStateResidencyTicks::UNDEFINED 30338789753088                       # Cumulative time (in ticks) in various power states (Tick)
system.tol3bus.transDist::ReadReq                 767                       # Transaction distribution (Count)
system.tol3bus.transDist::ReadResp            2406920                       # Transaction distribution (Count)
system.tol3bus.transDist::WriteReq              24914                       # Transaction distribution (Count)
system.tol3bus.transDist::WriteResp             24914                       # Transaction distribution (Count)
system.tol3bus.transDist::WritebackDirty       468495                       # Transaction distribution (Count)
system.tol3bus.transDist::WriteClean           880122                       # Transaction distribution (Count)
system.tol3bus.transDist::CleanEvict          3122034                       # Transaction distribution (Count)
system.tol3bus.transDist::UpgradeReq           184107                       # Transaction distribution (Count)
system.tol3bus.transDist::UpgradeResp              68                       # Transaction distribution (Count)
system.tol3bus.transDist::ReadExReq            351260                       # Transaction distribution (Count)
system.tol3bus.transDist::ReadExResp           351260                       # Transaction distribution (Count)
system.tol3bus.transDist::ReadSharedReq       2406153                       # Transaction distribution (Count)
system.tol3bus.transDist::CleanInvalidReq      1215527                       # Transaction distribution (Count)
system.tol3bus.transDist::CleanInvalidResp      1215527                       # Transaction distribution (Count)
system.tol3bus.pktCount_system.cpu.l2cache.mem_side_port::system.l3.cpu_side_port     10896768                       # Packet count per connected requestor and responder (Count)
system.tol3bus.pktSize_system.cpu.l2cache.mem_side_port::system.l3.cpu_side_port    248660181                       # Cumulative packet size per connected requestor and responder (Byte)
system.tol3bus.snoops                         1939339                       # Total snoops (Count)
system.tol3bus.snoopTraffic                  14224000                       # Total snoop traffic (Byte)
system.tol3bus.snoopFanout::samples           5938028                       # Request fanout histogram (Count)
system.tol3bus.snoopFanout::mean             0.000600                       # Request fanout histogram (Count)
system.tol3bus.snoopFanout::stdev            0.024485                       # Request fanout histogram (Count)
system.tol3bus.snoopFanout::underflows              0      0.00%      0.00% # Request fanout histogram (Count)
system.tol3bus.snoopFanout::0                 5934466     99.94%     99.94% # Request fanout histogram (Count)
system.tol3bus.snoopFanout::1                    3562      0.06%    100.00% # Request fanout histogram (Count)
system.tol3bus.snoopFanout::overflows               0      0.00%    100.00% # Request fanout histogram (Count)
system.tol3bus.snoopFanout::min_value               0                       # Request fanout histogram (Count)
system.tol3bus.snoopFanout::max_value               1                       # Request fanout histogram (Count)
system.tol3bus.snoopFanout::total             5938028                       # Request fanout histogram (Count)
system.tol3bus.power_state.pwrStateResidencyTicks::UNDEFINED 30338789753088                       # Cumulative time (in ticks) in various power states (Tick)
system.tol3bus.reqLayer0.occupancy         2994232104                       # Layer occupancy (ticks) (Tick)
system.tol3bus.reqLayer0.utilization              0.0                       # Layer utilization (Ratio)
system.tol3bus.respLayer0.occupancy        3168510550                       # Layer occupancy (ticks) (Tick)
system.tol3bus.respLayer0.utilization             0.0                       # Layer utilization (Ratio)
system.tol3bus.snoop_filter.totRequests       5992276                       # Total number of requests made to the snoop filter. (Count)
system.tol3bus.snoop_filter.hitSingleRequests      2932864                       # Number of requests hitting in the snoop filter with a single holder of the requested data. (Count)
system.tol3bus.snoop_filter.hitMultiRequests            0                       # Number of requests hitting in the snoop filter with multiple (>1) holders of the requested data. (Count)
system.tol3bus.snoop_filter.totSnoops            3562                       # Total number of snoops made to the snoop filter. (Count)
system.tol3bus.snoop_filter.hitSingleSnoops         3562                       # Number of snoops hitting in the snoop filter with a single holder of the requested data. (Count)
system.tol3bus.snoop_filter.hitMultiSnoops            0                       # Number of snoops hitting in the snoop filter with multiple (>1) holders of the requested data. (Count)
system.voltage_domain.voltage                       1                       # Voltage in Volts (Volt)
system.workload.inst.arm                            0                       # number of arm instructions executed (Count)
system.workload.inst.quiesce                        0                       # number of quiesce instructions executed (Count)

---------- End Simulation Statistics   ----------
